Program Version,EnergyPlus, Version 9.0.1-bb7ca4f0da, YMD=2018.11.12 18:36
! <Version>, Version ID
 Version, 9.0
! <Timesteps per Hour>, #TimeSteps, Minutes per TimeStep {minutes}
 Timesteps per Hour,  6, 10
! <System Convergence Limits>, Minimum System TimeStep {minutes}, Max HVAC Iterations, Minimum Plant Iterations, Maximum Plant Iterations
 System Convergence Limits, 5, 25, 2, 8
! <Simulation Control>, Do Zone Sizing, Do System Sizing, Do Plant Sizing, Do Design Days, Do Weather Simulation, Do HVAC Sizing Simulation
 Simulation Control, Yes, Yes, Yes, Yes, Yes, No
! <Output Reporting Tolerances>, Tolerance for Time Heating Setpoint Not Met, Tolerance for Zone Cooling Setpoint Not Met Time
 Output Reporting Tolerances, 0.200, 0.200, 
! <Site:GroundTemperature:BuildingSurface>,Jan{C},Feb{C},Mar{C},Apr{C},May{C},Jun{C},Jul{C},Aug{C},Sep{C},Oct{C},Nov{C},Dec{C}
 Site:GroundTemperature:BuildingSurface,  19.96,  19.94,  19.99,  20.04,  20.09,  20.17,  20.21,  20.24,  20.23,  20.20,  20.17,  20.12
! <Site:GroundTemperature:FCfactorMethod>,Jan{C},Feb{C},Mar{C},Apr{C},May{C},Jun{C},Jul{C},Aug{C},Sep{C},Oct{C},Nov{C},Dec{C}
 Site:GroundTemperature:FCfactorMethod,  22.26,  20.91,  20.55,  20.86,  22.68,  24.72,  26.64,  28.02,  28.43,  27.78,  26.21,  24.23
! <Site:GroundTemperature:Shallow>,Jan{C},Feb{C},Mar{C},Apr{C},May{C},Jun{C},Jul{C},Aug{C},Sep{C},Oct{C},Nov{C},Dec{C}
 Site:GroundTemperature:Shallow,  13.00,  13.00,  13.00,  13.00,  13.00,  13.00,  13.00,  13.00,  13.00,  13.00,  13.00,  13.00
! <Site:GroundTemperature:Deep>,Jan{C},Feb{C},Mar{C},Apr{C},May{C},Jun{C},Jul{C},Aug{C},Sep{C},Oct{C},Nov{C},Dec{C}
 Site:GroundTemperature:Deep,  16.00,  16.00,  16.00,  16.00,  16.00,  16.00,  16.00,  16.00,  16.00,  16.00,  16.00,  16.00
! <Site:GroundReflectance>,Jan{dimensionless},Feb{dimensionless},Mar{dimensionless},Apr{dimensionless},May{dimensionless},Jun{dimensionless},Jul{dimensionless},Aug{dimensionless},Sep{dimensionless},Oct{dimensionless},Nov{dimensionless},Dec{dimensionless}
 Site:GroundReflectance,  0.20,  0.20,  0.20,  0.20,  0.20,  0.20,  0.20,  0.20,  0.20,  0.20,  0.20,  0.20
! <Site:GroundReflectance:SnowModifier>, Normal, Daylighting {dimensionless}
 Site:GroundReflectance:SnowModifier,   1.000,   1.000
! <Site:GroundReflectance:Snow>,Jan{dimensionless},Feb{dimensionless},Mar{dimensionless},Apr{dimensionless},May{dimensionless},Jun{dimensionless},Jul{dimensionless},Aug{dimensionless},Sep{dimensionless},Oct{dimensionless},Nov{dimensionless},Dec{dimensionless}
 Site:GroundReflectance:Snow,  0.20,  0.20,  0.20,  0.20,  0.20,  0.20,  0.20,  0.20,  0.20,  0.20,  0.20,  0.20
! <Site:GroundReflectance:Snow:Daylighting>,Jan{dimensionless},Feb{dimensionless},Mar{dimensionless},Apr{dimensionless},May{dimensionless},Jun{dimensionless},Jul{dimensionless},Aug{dimensionless},Sep{dimensionless},Oct{dimensionless},Nov{dimensionless},Dec{dimensionless}
 Site:GroundReflectance:Snow:Daylighting,  0.20,  0.20,  0.20,  0.20,  0.20,  0.20,  0.20,  0.20,  0.20,  0.20,  0.20,  0.20
! <Environment:Weather Station>,Wind Sensor Height Above Ground {m},Wind Speed Profile Exponent {},Wind Speed Profile Boundary Layer Thickness {m},Air Temperature Sensor Height Above Ground {m},Wind Speed Modifier Coefficient-Internal,Temperature Modifier Coefficient-Internal
Environment:Weather Station,10.000,0.140,270.000,1.500,1.586,9.750E-003
! <Site:Location>, Location Name, Latitude {N+/S- Deg}, Longitude {E+/W- Deg},  Time Zone Number {GMT+/-}, Elevation {m},  Standard Pressure at Elevation {Pa}, Standard RhoAir at Elevation
Site:Location,Miami Intl Ap FL USA TMY3 WMO#=722020,25.82,-80.30,-5.00,11.00,101193,1.2027
! <Site Water Mains Temperature Information>,Calculation Method{},Water Mains Temperature Schedule Name{},Annual Average Outdoor Air Temperature{C},Maximum Difference In Monthly Average Outdoor Air Temperatures{deltaC},Fixed Default Water Mains Temperature{C}
Site Water Mains Temperature Information,Correlation,NA,9.69,28.10,NA
! <Building Information>, Building Name,North Axis {deg},Terrain,  Loads Convergence Tolerance Value,Temperature Convergence Tolerance Value,  Solar Distribution,Maximum Number of Warmup Days,Minimum Number of Warmup Days
 Building Information,Benchmark Large Office New V1.1_3.1,0.000,City,4.00000E-002,0.20000,FullInteriorAndExterior,25,6
! <Inside Convection Algorithm>, Algorithm {Simple | TARP | CeilingDiffuser | AdaptiveConvectionAlgorithm}
Inside Convection Algorithm,TARP
! <Outside Convection Algorithm>, Algorithm {SimpleCombined | TARP | MoWitt | DOE-2 | AdaptiveConvectionAlgorithm}
Outside Convection Algorithm,DOE-2
! <Sky Radiance Distribution>, Value {Anisotropic}
Sky Radiance Distribution,Anisotropic
! <Zone Air Solution Algorithm>, Value {ThirdOrderBackwardDifference | AnalyticalSolution | EulerMethod}
 Zone Air Solution Algorithm, ThirdOrderBackwardDifference
! <Zone Air Carbon Dioxide Balance Simulation>, Simulation {Yes/No}, Carbon Dioxide Concentration
 Zone Air Carbon Dioxide Balance Simulation, No,N/A
! <Zone Air Generic Contaminant Balance Simulation>, Simulation {Yes/No}, Generic Contaminant Concentration
 Zone Air Generic Contaminant Balance Simulation, No,N/A
! <Zone Air Mass Flow Balance Simulation>, Enforce Mass Balance, Adjust Zone Mixing, Adjust Zone Infiltration {AddInfiltration | AdjustInfiltration | None}, Infiltration Zones {MixingSourceZonesOnly | AllZones}
 Zone Air Mass Flow Balance Simulation, No,N/A,N/A,N/A
! <HVACSystemRootFindingAlgorithm>, Value {RegulaFalsi | Bisection | BisectionThenRegulaFalsi | RegulaFalsiThenBisection}
 HVACSystemRootFindingAlgorithm, RegulaFalsi
! <Environment:Site Atmospheric Variation>,Wind Speed Profile Exponent {},Wind Speed Profile Boundary Layer Thickness {m},Air Temperature Gradient Coefficient {K/m}
Environment:Site Atmospheric Variation,0.330,460.000,6.500000E-003
! <Surface Geometry>,Starting Corner,Vertex Input Direction,Coordinate System,Daylight Reference Point Coordinate System,Rectangular (Simple) Surface Coordinate System
 Surface Geometry,UpperLeftCorner,Counterclockwise,RelativeCoordinateSystem,RelativeCoordinateSystem,RelativeToZoneOrigin
! <Surface Heat Transfer Algorithm>, Value {CTF - ConductionTransferFunction | EMPD - MoisturePenetrationDepthConductionTransferFunction | CondFD - ConductionFiniteDifference | HAMT - CombinedHeatAndMoistureFiniteElement} - Description,Inside Surface Max Temperature Limit{C}, Surface Convection Coefficient Lower Limit {W/m2-K}, Surface Convection Coefficient Upper Limit {W/m2-K}
Surface Heat Transfer Algorithm, CTF - ConductionTransferFunction,200,0.10,1000.0
! <Shading Summary>, Number of Fixed Detached Shades, Number of Building Detached Shades, Number of Attached Shades
 Shading Summary,0,0,0
! <Zone Summary>, Number of Zones, Number of Zone Surfaces, Number of SubSurfaces
 Zone Summary,19,158,12
! <Zone Information>,Zone Name,North Axis {deg},Origin X-Coordinate {m},Origin Y-Coordinate {m},Origin Z-Coordinate {m},Centroid X-Coordinate {m},Centroid Y-Coordinate {m},Centroid Z-Coordinate {m},Type,Zone Multiplier,Zone List Multiplier,Minimum X {m},Maximum X {m},Minimum Y {m},Maximum Y {m},Minimum Z {m},Maximum Z {m},Ceiling Height {m},Volume {m3},Zone Inside Convection Algorithm {Simple-Detailed-CeilingDiffuser-TrombeWall},Zone Outside Convection Algorithm {Simple-Detailed-Tarp-MoWitt-DOE-2-BLAST}, Floor Area {m2},Exterior Gross Wall Area {m2},Exterior Net Wall Area {m2},Exterior Window Area {m2}, Number of Surfaces, Number of SubSurfaces, Number of Shading SubSurfaces,  Part of Total Building Area
 Zone Information, BASEMENT,0.0,0.00,4.00E-002,0.20,36.55,24.41,-1.02,1,1,1,0.00,73.11,4.00E-002,48.78,-2.24,0.20,2.44,8690.42,TARP,DOE-2,3563.11,0.00,0.00,0.00,10,0,0,Yes
 Zone Information, CORE_BOTTOM,0.0,0.00,0.00,0.00,36.55,24.37,1.37,1,1,1,4.57,68.53,4.57,44.17,0.00,2.74,2.74,6948.69,TARP,DOE-2,2532.32,0.00,0.00,0.00,6,0,0,Yes
 Zone Information, CORE_MID,0.0,0.00,0.00,0.00,36.55,24.37,21.19,1,10,1,4.57,68.53,4.57,44.17,19.82,22.56,2.74,6948.69,TARP,DOE-2,2532.32,0.00,0.00,0.00,6,0,0,Yes
 Zone Information, CORE_TOP,0.0,0.00,0.00,0.00,36.55,24.37,44.97,1,1,1,4.57,68.53,4.57,44.17,43.60,46.34,2.74,6948.69,TARP,DOE-2,2532.32,0.00,0.00,0.00,6,0,0,Yes
 Zone Information, PERIMETER_BOT_ZN_3,0.0,0.00,0.00,0.00,36.55,46.54,1.37,1,1,1,0.00,73.11,44.17,48.74,0.00,2.74,2.74,860.00,TARP,DOE-2,313.41,200.61,84.70,115.90,6,1,0,Yes
 Zone Information, PERIMETER_BOT_ZN_2,0.0,0.00,0.00,0.00,70.95,24.37,1.37,1,1,1,68.53,73.11,0.00,48.74,0.00,2.74,2.74,554.22,TARP,DOE-2,201.98,133.74,56.47,77.27,6,1,0,Yes
 Zone Information, PERIMETER_BOT_ZN_1,0.0,0.00,0.00,0.00,36.55,2.20,1.37,1,1,1,0.00,73.11,0.00,4.57,0.00,2.74,2.74,860.02,TARP,DOE-2,313.42,200.61,84.70,115.90,6,1,0,Yes
 Zone Information, PERIMETER_BOT_ZN_4,0.0,0.00,0.00,0.00,2.16,24.37,1.37,1,1,1,0.00,4.57,0.00,48.74,0.00,2.74,2.74,554.22,TARP,DOE-2,201.98,133.74,56.47,77.27,6,1,0,Yes
 Zone Information, PERIMETER_MID_ZN_3,0.0,0.00,0.00,0.00,36.55,46.54,21.19,1,10,1,0.00,73.11,44.17,48.74,19.82,22.56,2.74,860.00,TARP,DOE-2,313.41,200.61,84.70,115.90,6,1,0,Yes
 Zone Information, PERIMETER_MID_ZN_2,0.0,0.00,0.00,0.00,70.95,24.37,21.19,1,10,1,68.53,73.11,0.00,48.74,19.82,22.56,2.74,554.22,TARP,DOE-2,201.98,133.74,56.47,77.27,6,1,0,Yes
 Zone Information, PERIMETER_MID_ZN_1,0.0,0.00,0.00,0.00,36.55,2.20,21.19,1,10,1,0.00,73.11,0.00,4.57,19.82,22.56,2.74,860.02,TARP,DOE-2,313.42,200.61,84.70,115.90,6,1,0,Yes
 Zone Information, PERIMETER_MID_ZN_4,0.0,0.00,0.00,0.00,2.16,24.37,21.19,1,10,1,0.00,4.57,0.00,48.74,19.82,22.56,2.74,554.22,TARP,DOE-2,201.98,133.74,56.47,77.27,6,1,0,Yes
 Zone Information, PERIMETER_TOP_ZN_3,0.0,0.00,0.00,0.00,36.55,46.54,44.97,1,1,1,0.00,73.11,44.17,48.74,43.60,46.34,2.74,860.00,TARP,DOE-2,313.41,200.61,84.70,115.90,6,1,0,Yes
 Zone Information, PERIMETER_TOP_ZN_2,0.0,0.00,0.00,0.00,70.95,24.37,44.97,1,1,1,68.53,73.11,0.00,48.74,43.60,46.34,2.74,554.22,TARP,DOE-2,201.98,133.74,56.47,77.27,6,1,0,Yes
 Zone Information, PERIMETER_TOP_ZN_1,0.0,0.00,0.00,0.00,36.55,2.20,44.97,1,1,1,0.00,73.11,0.00,4.57,43.60,46.34,2.74,860.02,TARP,DOE-2,313.42,200.61,84.70,115.90,6,1,0,Yes
 Zone Information, PERIMETER_TOP_ZN_4,0.0,0.00,0.00,0.00,2.16,24.37,44.97,1,1,1,0.00,4.57,0.00,48.74,43.60,46.34,2.74,554.22,TARP,DOE-2,201.98,133.74,56.47,77.27,6,1,0,Yes
 Zone Information, GROUNDFLOOR_PLENUM,0.0,0.00,0.00,0.00,36.55,24.37,3.35,1,1,1,0.00,73.11,0.00,48.74,2.74,3.96,1.22,4344.14,TARP,DOE-2,3563.11,297.11,297.11,0.00,10,0,0,No
 Zone Information, MIDFLOOR_PLENUM,0.0,0.00,0.00,0.00,36.55,24.37,23.17,1,10,1,0.00,73.11,0.00,48.74,22.56,23.78,1.22,4344.14,TARP,DOE-2,3563.11,297.11,297.11,0.00,10,0,0,No
 Zone Information, TOPFLOOR_PLENUM,0.0,0.00,0.00,0.00,36.55,24.37,46.95,1,1,1,0.00,73.11,0.00,48.74,46.34,47.56,1.22,4344.14,TARP,DOE-2,3563.11,297.11,297.11,0.00,10,0,0,No
! <Zone Internal Gains Nominal>,Zone Name, Floor Area {m2},# Occupants,Area per Occupant {m2/person},Occupant per Area {person/m2},Interior Lighting {W/m2},Electric Load {W/m2},Gas Load {W/m2},Other Load {W/m2},Hot Water Eq {W/m2},Steam Equipment {W/m2},Sum Loads per Area {W/m2},Outdoor Controlled Baseboard Heat
 Zone Internal Gains Nominal, BASEMENT,3563.11,95.8,37.175,2.690E-002,10.760,4.840,0.000,0.000,0.000,0.000,15.600,No
 Zone Internal Gains Nominal, CORE_BOTTOM,2532.32,136.2,18.587,5.380E-002,10.760,8.070,0.000,0.000,0.000,0.000,18.830,No
 Zone Internal Gains Nominal, CORE_MID,2532.32,136.2,18.587,5.380E-002,10.760,8.070,0.000,0.000,0.000,0.000,18.830,No
 Zone Internal Gains Nominal, CORE_TOP,2532.32,136.2,18.587,5.380E-002,10.760,95.067,0.000,0.000,0.000,0.000,105.827,No
 Zone Internal Gains Nominal, PERIMETER_BOT_ZN_3,313.41,16.9,18.587,5.380E-002,10.760,8.070,0.000,0.000,0.000,0.000,18.830,No
 Zone Internal Gains Nominal, PERIMETER_BOT_ZN_2,201.98,10.9,18.587,5.380E-002,10.760,8.070,0.000,0.000,0.000,0.000,18.830,No
 Zone Internal Gains Nominal, PERIMETER_BOT_ZN_1,313.42,16.9,18.587,5.380E-002,10.760,8.070,0.000,0.000,0.000,0.000,18.830,No
 Zone Internal Gains Nominal, PERIMETER_BOT_ZN_4,201.98,10.9,18.587,5.380E-002,10.760,8.070,0.000,0.000,0.000,0.000,18.830,No
 Zone Internal Gains Nominal, PERIMETER_MID_ZN_3,313.41,16.9,18.587,5.380E-002,10.760,8.070,0.000,0.000,0.000,0.000,18.830,No
 Zone Internal Gains Nominal, PERIMETER_MID_ZN_2,201.98,10.9,18.587,5.380E-002,10.760,8.070,0.000,0.000,0.000,0.000,18.830,No
 Zone Internal Gains Nominal, PERIMETER_MID_ZN_1,313.42,16.9,18.587,5.380E-002,10.760,8.070,0.000,0.000,0.000,0.000,18.830,No
 Zone Internal Gains Nominal, PERIMETER_MID_ZN_4,201.98,10.9,18.587,5.380E-002,10.760,8.070,0.000,0.000,0.000,0.000,18.830,No
 Zone Internal Gains Nominal, PERIMETER_TOP_ZN_3,313.41,16.9,18.587,5.380E-002,10.760,8.070,0.000,0.000,0.000,0.000,18.830,No
 Zone Internal Gains Nominal, PERIMETER_TOP_ZN_2,201.98,10.9,18.587,5.380E-002,10.760,8.070,0.000,0.000,0.000,0.000,18.830,No
 Zone Internal Gains Nominal, PERIMETER_TOP_ZN_1,313.42,16.9,18.587,5.380E-002,10.760,8.070,0.000,0.000,0.000,0.000,18.830,No
 Zone Internal Gains Nominal, PERIMETER_TOP_ZN_4,201.98,10.9,18.587,5.380E-002,10.760,8.070,0.000,0.000,0.000,0.000,18.830,No
 Zone Internal Gains Nominal, GROUNDFLOOR_PLENUM,3563.11,0.0,N/A,0.000,0.000,0.000,0.000,0.000,0.000,0.000,0.000,No
 Zone Internal Gains Nominal, MIDFLOOR_PLENUM,3563.11,0.0,N/A,0.000,0.000,0.000,0.000,0.000,0.000,0.000,0.000,No
 Zone Internal Gains Nominal, TOPFLOOR_PLENUM,3563.11,0.0,N/A,0.000,0.000,0.000,0.000,0.000,0.000,0.000,0.000,No
! <People Internal Gains Nominal>,Name,Schedule Name,Zone Name,Zone Floor Area {m2},# Zone Occupants,Number of People {},People/Floor Area {person/m2},Floor Area per person {m2/person},Fraction Radiant,Fraction Convected,Sensible Fraction Calculation,Activity level,ASHRAE 55 Warnings,Carbon Dioxide Generation Rate,Nominal Minimum Number of People,Nominal Maximum Number of People,MRT Calculation Type,Work Efficiency, Clothing Insulation Calculation Method,Clothing Insulation Calculation Method Schedule,Clothing,Air Velocity,Fanger Calculation,Pierce Calculation,KSU Calculation
 People Internal Gains Nominal, BASEMENT,BLDG_OCC_SCH,BASEMENT,3563.11,95.8,95.8,2.690E-002,37.175,0.300,0.700,AutoCalculate,ACTIVITY_SCH,No,3.8200E-008,0,96,Zone Averaged,WORK_EFF_SCH,Clothing Insulation Schedule,N/A,CLOTHING_SCH,AIR_VELO_SCH,Yes,No,No
 People Internal Gains Nominal, CORE_BOTTOM,BLDG_OCC_SCH,CORE_BOTTOM,2532.32,136.2,136.2,5.380E-002,18.587,0.300,0.700,AutoCalculate,ACTIVITY_SCH,No,3.8200E-008,0,136,Zone Averaged,WORK_EFF_SCH,Clothing Insulation Schedule,N/A,CLOTHING_SCH,AIR_VELO_SCH,Yes,No,No
 People Internal Gains Nominal, CORE_MID,BLDG_OCC_SCH,CORE_MID,2532.32,136.2,136.2,5.380E-002,18.587,0.300,0.700,AutoCalculate,ACTIVITY_SCH,No,3.8200E-008,0,136,Zone Averaged,WORK_EFF_SCH,Clothing Insulation Schedule,N/A,CLOTHING_SCH,AIR_VELO_SCH,Yes,No,No
 People Internal Gains Nominal, CORE_TOP,BLDG_OCC_SCH,CORE_TOP,2532.32,136.2,136.2,5.380E-002,18.587,0.300,0.700,AutoCalculate,ACTIVITY_SCH,No,3.8200E-008,0,136,Zone Averaged,WORK_EFF_SCH,Clothing Insulation Schedule,N/A,CLOTHING_SCH,AIR_VELO_SCH,Yes,No,No
 People Internal Gains Nominal, PERIMETER_BOT_ZN_3,BLDG_OCC_SCH,PERIMETER_BOT_ZN_3,313.41,16.9,16.9,5.380E-002,18.587,0.300,0.700,AutoCalculate,ACTIVITY_SCH,No,3.8200E-008,0,17,Zone Averaged,WORK_EFF_SCH,Clothing Insulation Schedule,N/A,CLOTHING_SCH,AIR_VELO_SCH,Yes,No,No
 People Internal Gains Nominal, PERIMETER_BOT_ZN_2,BLDG_OCC_SCH,PERIMETER_BOT_ZN_2,201.98,10.9,10.9,5.380E-002,18.587,0.300,0.700,AutoCalculate,ACTIVITY_SCH,No,3.8200E-008,0,11,Zone Averaged,WORK_EFF_SCH,Clothing Insulation Schedule,N/A,CLOTHING_SCH,AIR_VELO_SCH,Yes,No,No
 People Internal Gains Nominal, PERIMETER_BOT_ZN_1,BLDG_OCC_SCH,PERIMETER_BOT_ZN_1,313.42,16.9,16.9,5.380E-002,18.587,0.300,0.700,AutoCalculate,ACTIVITY_SCH,No,3.8200E-008,0,17,Zone Averaged,WORK_EFF_SCH,Clothing Insulation Schedule,N/A,CLOTHING_SCH,AIR_VELO_SCH,Yes,No,No
 People Internal Gains Nominal, PERIMETER_BOT_ZN_4,BLDG_OCC_SCH,PERIMETER_BOT_ZN_4,201.98,10.9,10.9,5.380E-002,18.587,0.300,0.700,AutoCalculate,ACTIVITY_SCH,No,3.8200E-008,0,11,Zone Averaged,WORK_EFF_SCH,Clothing Insulation Schedule,N/A,CLOTHING_SCH,AIR_VELO_SCH,Yes,No,No
 People Internal Gains Nominal, PERIMETER_MID_ZN_3,BLDG_OCC_SCH,PERIMETER_MID_ZN_3,313.41,16.9,16.9,5.380E-002,18.587,0.300,0.700,AutoCalculate,ACTIVITY_SCH,No,3.8200E-008,0,17,Zone Averaged,WORK_EFF_SCH,Clothing Insulation Schedule,N/A,CLOTHING_SCH,AIR_VELO_SCH,Yes,No,No
 People Internal Gains Nominal, PERIMETER_MID_ZN_2,BLDG_OCC_SCH,PERIMETER_MID_ZN_2,201.98,10.9,10.9,5.380E-002,18.587,0.300,0.700,AutoCalculate,ACTIVITY_SCH,No,3.8200E-008,0,11,Zone Averaged,WORK_EFF_SCH,Clothing Insulation Schedule,N/A,CLOTHING_SCH,AIR_VELO_SCH,Yes,No,No
 People Internal Gains Nominal, PERIMETER_MID_ZN_1,BLDG_OCC_SCH,PERIMETER_MID_ZN_1,313.42,16.9,16.9,5.380E-002,18.587,0.300,0.700,AutoCalculate,ACTIVITY_SCH,No,3.8200E-008,0,17,Zone Averaged,WORK_EFF_SCH,Clothing Insulation Schedule,N/A,CLOTHING_SCH,AIR_VELO_SCH,Yes,No,No
 People Internal Gains Nominal, PERIMETER_MID_ZN_4,BLDG_OCC_SCH,PERIMETER_MID_ZN_4,201.98,10.9,10.9,5.380E-002,18.587,0.300,0.700,AutoCalculate,ACTIVITY_SCH,No,3.8200E-008,0,11,Zone Averaged,WORK_EFF_SCH,Clothing Insulation Schedule,N/A,CLOTHING_SCH,AIR_VELO_SCH,Yes,No,No
 People Internal Gains Nominal, PERIMETER_TOP_ZN_3,BLDG_OCC_SCH,PERIMETER_TOP_ZN_3,313.41,16.9,16.9,5.380E-002,18.587,0.300,0.700,AutoCalculate,ACTIVITY_SCH,No,3.8200E-008,0,17,Zone Averaged,WORK_EFF_SCH,Clothing Insulation Schedule,N/A,CLOTHING_SCH,AIR_VELO_SCH,Yes,No,No
 People Internal Gains Nominal, PERIMETER_TOP_ZN_2,BLDG_OCC_SCH,PERIMETER_TOP_ZN_2,201.98,10.9,10.9,5.380E-002,18.587,0.300,0.700,AutoCalculate,ACTIVITY_SCH,No,3.8200E-008,0,11,Zone Averaged,WORK_EFF_SCH,Clothing Insulation Schedule,N/A,CLOTHING_SCH,AIR_VELO_SCH,Yes,No,No
 People Internal Gains Nominal, PERIMETER_TOP_ZN_1,BLDG_OCC_SCH,PERIMETER_TOP_ZN_1,313.42,16.9,16.9,5.380E-002,18.587,0.300,0.700,AutoCalculate,ACTIVITY_SCH,No,3.8200E-008,0,17,Zone Averaged,WORK_EFF_SCH,Clothing Insulation Schedule,N/A,CLOTHING_SCH,AIR_VELO_SCH,Yes,No,No
 People Internal Gains Nominal, PERIMETER_TOP_ZN_4,BLDG_OCC_SCH,PERIMETER_TOP_ZN_4,201.98,10.9,10.9,5.380E-002,18.587,0.300,0.700,AutoCalculate,ACTIVITY_SCH,No,3.8200E-008,0,11,Zone Averaged,WORK_EFF_SCH,Clothing Insulation Schedule,N/A,CLOTHING_SCH,AIR_VELO_SCH,Yes,No,No
! <Lights Internal Gains Nominal>,Name,Schedule Name,Zone Name,Zone Floor Area {m2},# Zone Occupants,Lighting Level {W},Lights/Floor Area {W/m2},Lights per person {W/person},Fraction Return Air,Fraction Radiant,Fraction Short Wave,Fraction Convected,Fraction Replaceable,End-Use Category,Nominal Minimum Lighting Level {W},Nominal Maximum Lighting Level {W}
 Lights Internal Gains Nominal, BASEMENT_LIGHTS,BLDG_LIGHT_SCH,BASEMENT,3563.11,95.8,38339.021,10.760,400.000,0.000,0.700,0.200,0.100,1.000,General,0.000,38339.021
 Lights Internal Gains Nominal, CORE_BOTTOM_LIGHTS,BLDG_LIGHT_SCH,CORE_BOTTOM,2532.32,136.2,27247.798,10.760,200.000,0.000,0.700,0.200,0.100,1.000,General,0.000,27247.798
 Lights Internal Gains Nominal, CORE_MID_LIGHTS,BLDG_LIGHT_SCH,CORE_MID,2532.32,136.2,27247.798,10.760,200.000,0.000,0.700,0.200,0.100,1.000,General,0.000,27247.798
 Lights Internal Gains Nominal, CORE_TOP_LIGHTS,BLDG_LIGHT_SCH,CORE_TOP,2532.32,136.2,27247.798,10.760,200.000,0.000,0.700,0.200,0.100,1.000,General,0.000,27247.798
 Lights Internal Gains Nominal, PERIMETER_BOT_ZN_3_LIGHTS,BLDG_LIGHT_SCH,PERIMETER_BOT_ZN_3,313.41,16.9,3372.322,10.760,200.000,0.000,0.700,0.200,0.100,1.000,General,0.000,3372.322
 Lights Internal Gains Nominal, PERIMETER_BOT_ZN_2_LIGHTS,BLDG_LIGHT_SCH,PERIMETER_BOT_ZN_2,201.98,10.9,2173.253,10.760,199.999,0.000,0.700,0.200,0.100,1.000,General,0.000,2173.253
 Lights Internal Gains Nominal, PERIMETER_BOT_ZN_1_LIGHTS,BLDG_LIGHT_SCH,PERIMETER_BOT_ZN_1,313.42,16.9,3372.396,10.760,200.000,0.000,0.700,0.200,0.100,1.000,General,0.000,3372.396
 Lights Internal Gains Nominal, PERIMETER_BOT_ZN_4_LIGHTS,BLDG_LIGHT_SCH,PERIMETER_BOT_ZN_4,201.98,10.9,2173.253,10.760,199.999,0.000,0.700,0.200,0.100,1.000,General,0.000,2173.253
 Lights Internal Gains Nominal, PERIMETER_MID_ZN_3_LIGHTS,BLDG_LIGHT_SCH,PERIMETER_MID_ZN_3,313.41,16.9,3372.322,10.760,200.000,0.000,0.700,0.200,0.100,1.000,General,0.000,3372.322
 Lights Internal Gains Nominal, PERIMETER_MID_ZN_2_LIGHTS,BLDG_LIGHT_SCH,PERIMETER_MID_ZN_2,201.98,10.9,2173.253,10.760,199.999,0.000,0.700,0.200,0.100,1.000,General,0.000,2173.253
 Lights Internal Gains Nominal, PERIMETER_MID_ZN_1_LIGHTS,BLDG_LIGHT_SCH,PERIMETER_MID_ZN_1,313.42,16.9,3372.396,10.760,200.000,0.000,0.700,0.200,0.100,1.000,General,0.000,3372.396
 Lights Internal Gains Nominal, PERIMETER_MID_ZN_4_LIGHTS,BLDG_LIGHT_SCH,PERIMETER_MID_ZN_4,201.98,10.9,2173.253,10.760,199.999,0.000,0.700,0.200,0.100,1.000,General,0.000,2173.253
 Lights Internal Gains Nominal, PERIMETER_TOP_ZN_3_LIGHTS,BLDG_LIGHT_SCH,PERIMETER_TOP_ZN_3,313.41,16.9,3372.322,10.760,200.000,0.000,0.700,0.200,0.100,1.000,General,0.000,3372.322
 Lights Internal Gains Nominal, PERIMETER_TOP_ZN_2_LIGHTS,BLDG_LIGHT_SCH,PERIMETER_TOP_ZN_2,201.98,10.9,2173.253,10.760,199.999,0.000,0.700,0.200,0.100,1.000,General,0.000,2173.253
 Lights Internal Gains Nominal, PERIMETER_TOP_ZN_1_LIGHTS,BLDG_LIGHT_SCH,PERIMETER_TOP_ZN_1,313.42,16.9,3372.396,10.760,200.000,0.000,0.700,0.200,0.100,1.000,General,0.000,3372.396
 Lights Internal Gains Nominal, PERIMETER_TOP_ZN_4_LIGHTS,BLDG_LIGHT_SCH,PERIMETER_TOP_ZN_4,201.98,10.9,2173.253,10.760,199.999,0.000,0.700,0.200,0.100,1.000,General,0.000,2173.253
! <ElectricEquipment Internal Gains Nominal>,Name,Schedule Name,Zone Name,Zone Floor Area {m2},# Zone Occupants,Equipment Level {W},Equipment/Floor Area {W/m2},Equipment per person {W/person},Fraction Latent,Fraction Radiant,Fraction Lost,Fraction Convected,End-Use SubCategory,Nominal Minimum Equipment Level {W},Nominal Maximum Equipment Level {W}
 ElectricEquipment Internal Gains Nominal, BASEMENT_PLUGMISC_EQUIP,BLDG_EQUIP_SCH,BASEMENT,3563.11,95.8,17245.433,4.840,179.926,0.000,0.500,0.000,0.500,General,0.000,17245.433
 ElectricEquipment Internal Gains Nominal, CORE_BOTTOM_PLUGMISC_EQUIP,BLDG_EQUIP_SCH,CORE_BOTTOM,2532.32,136.2,20435.848,8.070,150.000,0.000,0.500,0.000,0.500,General,0.000,20435.848
 ElectricEquipment Internal Gains Nominal, CORE_MID_PLUGMISC_EQUIP,BLDG_EQUIP_SCH,CORE_MID,2532.32,136.2,20435.848,8.070,150.000,0.000,0.500,0.000,0.500,General,0.000,20435.848
 ElectricEquipment Internal Gains Nominal, CORE_TOP_ELEVATORS_EQUIP,BLDG_ELEVATORS,CORE_TOP,2532.32,136.2,240740.260,95.067,1767.044,0.000,0.500,0.000,0.500,Elevators,0.000,166110.779
 ElectricEquipment Internal Gains Nominal, PERIMETER_BOT_ZN_3_PLUGMISC_EQUIP,BLDG_EQUIP_SCH,PERIMETER_BOT_ZN_3,313.41,16.9,2529.242,8.070,150.000,0.000,0.500,0.000,0.500,General,0.000,2529.242
 ElectricEquipment Internal Gains Nominal, PERIMETER_BOT_ZN_2_PLUGMISC_EQUIP,BLDG_EQUIP_SCH,PERIMETER_BOT_ZN_2,201.98,10.9,1629.940,8.070,149.999,0.000,0.500,0.000,0.500,General,0.000,1629.940
 ElectricEquipment Internal Gains Nominal, PERIMETER_BOT_ZN_1_PLUGMISC_EQUIP,BLDG_EQUIP_SCH,PERIMETER_BOT_ZN_1,313.42,16.9,2529.297,8.070,150.000,0.000,0.500,0.000,0.500,General,0.000,2529.297
 ElectricEquipment Internal Gains Nominal, PERIMETER_BOT_ZN_4_PLUGMISC_EQUIP,BLDG_EQUIP_SCH,PERIMETER_BOT_ZN_4,201.98,10.9,1629.940,8.070,149.999,0.000,0.500,0.000,0.500,General,0.000,1629.940
 ElectricEquipment Internal Gains Nominal, PERIMETER_MID_ZN_3_PLUGMISC_EQUIP,BLDG_EQUIP_SCH,PERIMETER_MID_ZN_3,313.41,16.9,2529.242,8.070,150.000,0.000,0.500,0.000,0.500,General,0.000,2529.242
 ElectricEquipment Internal Gains Nominal, PERIMETER_MID_ZN_2_PLUGMISC_EQUIP,BLDG_EQUIP_SCH,PERIMETER_MID_ZN_2,201.98,10.9,1629.940,8.070,149.999,0.000,0.500,0.000,0.500,General,0.000,1629.940
 ElectricEquipment Internal Gains Nominal, PERIMETER_MID_ZN_1_PLUGMISC_EQUIP,BLDG_EQUIP_SCH,PERIMETER_MID_ZN_1,313.42,16.9,2529.297,8.070,150.000,0.000,0.500,0.000,0.500,General,0.000,2529.297
 ElectricEquipment Internal Gains Nominal, PERIMETER_MID_ZN_4_PLUGMISC_EQUIP,BLDG_EQUIP_SCH,PERIMETER_MID_ZN_4,201.98,10.9,1629.940,8.070,149.999,0.000,0.500,0.000,0.500,General,0.000,1629.940
 ElectricEquipment Internal Gains Nominal, PERIMETER_TOP_ZN_3_PLUGMISC_EQUIP,BLDG_EQUIP_SCH,PERIMETER_TOP_ZN_3,313.41,16.9,2529.242,8.070,150.000,0.000,0.500,0.000,0.500,General,0.000,2529.242
 ElectricEquipment Internal Gains Nominal, PERIMETER_TOP_ZN_2_PLUGMISC_EQUIP,BLDG_EQUIP_SCH,PERIMETER_TOP_ZN_2,201.98,10.9,1629.940,8.070,149.999,0.000,0.500,0.000,0.500,General,0.000,1629.940
 ElectricEquipment Internal Gains Nominal, PERIMETER_TOP_ZN_1_PLUGMISC_EQUIP,BLDG_EQUIP_SCH,PERIMETER_TOP_ZN_1,313.42,16.9,2529.297,8.070,150.000,0.000,0.500,0.000,0.500,General,0.000,2529.297
 ElectricEquipment Internal Gains Nominal, PERIMETER_TOP_ZN_4_PLUGMISC_EQUIP,BLDG_EQUIP_SCH,PERIMETER_TOP_ZN_4,201.98,10.9,1629.940,8.070,149.999,0.000,0.500,0.000,0.500,General,0.000,1629.940
! <Construction CTF>,Construction Name,Index,#Layers,#CTFs,Time Step {hours},ThermalConductance {w/m2-K},OuterThermalAbsorptance,InnerThermalAbsorptance,OuterSolarAbsorptance,InnerSolarAbsorptance,Roughness
! <Material CTF Summary>,Material Name,Thickness {m},Conductivity {w/m-K},Density {kg/m3},Specific Heat {J/kg-K},ThermalResistance {m2-K/w}
! <Material:Air>,Material Name,ThermalResistance {m2-K/w}
! <CTF>,Time,Outside,Cross,Inside,Flux (except final one)
 Construction CTF,INTERIORFURNISHINGS,   1,   1,   9,   0.167,     0.8000    ,   0.900,   0.900,   0.700,   0.700,MediumSmooth
 Material CTF Summary,STD WOOD 6INCH,  0.1500,         0.120,    540.000,     1210.000,   1.250    
 CTF,   9,     -0.27580628E-02,      0.97439125E-12,     -0.27580628E-02,      0.28516790E-03
 CTF,   8,      0.73590997E-01,      0.21837543E-08,      0.73590997E-01,     -0.77836043E-02
 CTF,   7,     -0.82599318    ,      0.23162835E-06,     -0.82599318    ,      0.89703933E-01
 CTF,   6,       5.1113916    ,      0.48671053E-05,       5.1113916    ,     -0.57224845    
 CTF,   5,      -19.214933    ,      0.30163627E-04,      -19.214933    ,       2.2266322    
 CTF,   4,       45.557404    ,      0.63181060E-04,       45.557404    ,      -5.4853312    
 CTF,   3,      -68.275533    ,      0.44785456E-04,      -68.275533    ,       8.5710568    
 CTF,   2,       62.555368    ,      0.93952058E-05,       62.555368    ,      -8.2111738    
 CTF,   1,      -31.904423    ,      0.39200004E-06,      -31.904423    ,       4.3886678    
 CTF,   0,       6.9260389    ,      0.77047546E-09,       6.9260389    
 Construction CTF,INT-FLOOR-TOPSIDE,   2,   2,   7,   0.167,      3.003    ,   0.900,   0.900,   0.700,   0.700,Rough
 Material CTF Summary,STD MAT-CC05 4  MW CONCRETE,  0.1000,         0.858,   1968.000,      836.800,  0.1166    
 Material CTF Summary,STD CP02 CARPET PAD,  0.0000,         0.000,      0.000,        0.000,  0.2165    
 CTF,   7,     -0.19058859E-15,     -0.86213480E-15,     -0.81904057E-11,     -0.47820686E-17
 CTF,   6,      0.21271533E-03,      0.34721572E-07,      0.15170727E-04,     -0.23617137E-05
 CTF,   5,     -0.29989871E-01,      0.31985142E-04,     -0.19977405E-02,      0.34813088E-03
 CTF,   4,       1.1735406    ,      0.21685715E-02,      0.77279158E-01,     -0.14791637E-01
 CTF,   3,      -14.158802    ,      0.23747765E-01,      -1.0076695    ,      0.20604405    
 CTF,   2,       56.330864    ,      0.50787294E-01,       4.6637159    ,     -0.99866111    
 CTF,   1,      -81.752156    ,      0.19046881E-01,      -7.9866110    ,       1.7749804    
 CTF,   0,       38.532666    ,      0.55307472E-03,       4.3516030    
 Construction CTF,INT-FLOOR-UNDERSIDE,   3,   2,   7,   0.167,      3.003    ,   0.900,   0.900,   0.700,   0.700,VeryRough
 Material CTF Summary,STD CP02 CARPET PAD,  0.0000,         0.000,      0.000,        0.000,  0.2165    
 Material CTF Summary,STD MAT-CC05 4  MW CONCRETE,  0.1000,         0.858,   1968.000,      836.800,  0.1166    
 CTF,   7,     -0.81904057E-11,     -0.86213480E-15,     -0.19058859E-15,     -0.47820686E-17
 CTF,   6,      0.15170727E-04,      0.34721572E-07,      0.21271533E-03,     -0.23617137E-05
 CTF,   5,     -0.19977405E-02,      0.31985142E-04,     -0.29989871E-01,      0.34813088E-03
 CTF,   4,      0.77279158E-01,      0.21685715E-02,       1.1735406    ,     -0.14791637E-01
 CTF,   3,      -1.0076695    ,      0.23747765E-01,      -14.158802    ,      0.20604405    
 CTF,   2,       4.6637159    ,      0.50787294E-01,       56.330864    ,     -0.99866111    
 CTF,   1,      -7.9866110    ,      0.19046881E-01,      -81.752156    ,       1.7749804    
 CTF,   0,       4.3516030    ,      0.55307472E-03,       38.532666    
 Construction CTF,DROPCEILING,   4,   1,   3,   0.167,      4.488    ,   0.900,   0.900,   0.700,   0.700,MediumSmooth
 Material CTF Summary,STD AC02,  0.0127,         0.057,    288.000,     1339.000,  0.2228    
 CTF,   3,     -0.21589802E-09,      0.15643069E-09,     -0.21589802E-09,      0.12999471E-21
 CTF,   2,      0.50772448E-02,      0.30006816E-02,      0.50772448E-02,     -0.13693132E-08
 CTF,   1,      -2.5944910    ,       1.4597758    ,      -2.5944910    ,      0.76344767E-02
 CTF,   0,       7.0433378    ,       2.9911476    ,       7.0433378    
 Construction CTF,IEAD_R-15 CI_ROOF,   9,   3,   9,   0.167,     0.3831    ,   0.900,   0.900,   0.700,   0.700,VeryRough
 Material CTF Summary,ROOF MEMBRANE,  0.0095,         0.160,   1121.290,     1460.000,  0.5938E-01
 Material CTF Summary,ROOF INSULATION,  0.1250,         0.049,    265.000,      836.800,   2.551    
 Material CTF Summary,METAL DECKING,  0.0015,        45.006,   7680.000,      418.400,  0.3333E-04
 CTF,   9,     -0.58793688E-07,     -0.22242040E-10,     -0.55588515E-06,     -0.43579218E-16
 CTF,   8,      0.74006497E-02,     -0.23606567E-10,      0.18745506E-01,     -0.49055729E-07
 CTF,   7,     -0.26820360    ,      0.97851908E-08,     -0.40321063    ,      0.16541744E-02
 CTF,   6,       3.2778300    ,      0.19604833E-05,       3.6308485    ,     -0.33413320E-01
 CTF,   5,      -19.692141    ,      0.48561591E-04,      -17.823772    ,      0.27706075    
 CTF,   4,       66.160742    ,      0.27910252E-03,       52.065421    ,      -1.2175240    
 CTF,   3,      -129.85295    ,      0.44591903E-03,      -92.601914    ,       3.0520345    
 CTF,   2,       147.29932    ,      0.18929372E-03,       97.987292    ,      -4.3545891    
 CTF,   1,      -89.191059    ,      0.15521762E-04,      -56.502932    ,       3.2722178    
 CTF,   0,       22.260038    ,      0.41012696E-07,       13.630503    
 Construction CTF,STANDARD_INT-WALL,  10,   2,   4,   0.167,      6.299    ,   0.900,   0.900,   0.700,   0.700,Smooth
 Material CTF Summary,GP01 1/2 GYPSUM,  0.0127,         0.160,    800.000,     1090.000,  0.7937E-01
 Material CTF Summary,GP01 1/2 GYPSUM,  0.0127,         0.160,    800.000,     1090.000,  0.7937E-01
 CTF,   4,      0.68458728E-09,      0.26079551E-09,      0.68458728E-09,     -0.34507121E-18
 CTF,   3,     -0.72180374E-03,      0.24295686E-03,     -0.72180374E-03,      0.69691454E-09
 CTF,   2,      0.83054762    ,      0.27682775    ,      0.83054762    ,     -0.35168967E-03
 CTF,   1,      -12.650482    ,       3.3590720    ,      -12.650482    ,      0.19281313    
 CTF,   0,       16.907513    ,       1.4507143    ,       16.907513    
 Construction CTF,MASS_R-7.6 CI_EXT-WALL,  11,   4,  12,   0.167,     0.7800    ,   0.900,   0.900,   0.920,   0.920,Smooth
 Material CTF Summary,1IN STUCCO,  0.0253,         0.692,   1858.000,      837.000,  0.3657E-01
 Material CTF Summary,8IN CONCRETE HW,  0.2033,         1.730,   2243.000,      837.000,  0.1175    
 Material CTF Summary,WALL INSULATION [5],  0.0453,         0.043,     91.000,      837.000,   1.049    
 Material CTF Summary,1/2IN GYPSUM,  0.0127,         0.160,    784.900,      830.000,  0.7937E-01
 CTF,  12,      0.17792082E-08,     -0.95987823E-15,      0.86571800E-09,     -0.36175539E-14
 CTF,  11,     -0.17182026E-05,     -0.67390069E-14,     -0.64751651E-06,      0.41462881E-09
 CTF,  10,      0.45394062E-03,      0.80848568E-11,      0.10741590E-03,     -0.26220616E-06
 CTF,   9,     -0.18502959E-01,      0.23857277E-08,     -0.58052583E-02,      0.34894518E-04
 CTF,   8,      0.33492419    ,      0.17036378E-06,      0.12019102    ,     -0.11609617E-02
 CTF,   7,      -3.3889012    ,      0.37456822E-05,      -1.2842502    ,      0.17697789E-01
 CTF,   6,       21.048966    ,      0.29102119E-04,       8.0524600    ,     -0.15005391    
 CTF,   5,      -83.643153    ,      0.84721819E-04,      -31.382560    ,      0.76813482    
 CTF,   4,       215.16309    ,      0.91312032E-04,       77.586646    ,      -2.4500923    
 CTF,   3,      -353.80951    ,      0.33036038E-04,      -120.89106    ,       4.8583927    
 CTF,   2,       356.33306    ,      0.31088394E-05,       114.35609    ,      -5.7697537    
 CTF,   1,      -198.96841    ,      0.41249889E-07,      -59.727364    ,       3.7264865    
 CTF,   0,       46.948233    ,     -0.69707486E-09,       13.175796    
 Construction CTF,UNHEATED - 4IN SLAB WITH CARPET_EXT-SLAB,  12,   2,   7,   0.167,      3.401    ,   0.900,   0.900,   0.700,   0.700,Rough
 Material CTF Summary,MAT-CC05 4 HW CONCRETE,  0.1016,         1.311,   2240.000,      836.800,  0.7750E-01
 Material CTF Summary,CP02 CARPET PAD,  0.0000,         0.000,      0.000,        0.000,  0.2165    
 CTF,   7,     -0.12993988E-14,     -0.86957422E-15,     -0.18259588E-12,      0.42962836E-16
 CTF,   6,      0.95648173E-05,      0.67403528E-08,      0.39672115E-06,     -0.52565161E-07
 CTF,   5,     -0.43398581E-02,      0.13231875E-04,     -0.15810680E-03,      0.25331368E-04
 CTF,   4,      0.45486386    ,      0.17387783E-02,      0.16111305E-01,     -0.30058479E-02
 CTF,   3,      -10.642115    ,      0.31345892E-01,     -0.43088243    ,      0.87601945E-01
 CTF,   2,       59.946610    ,      0.96585719E-01,       3.1129731    ,     -0.66319225    
 CTF,   1,      -103.91092    ,      0.48052750E-01,      -6.9248345    ,       1.5257717    
 CTF,   0,       54.335484    ,      0.18545935E-02,       4.4063801    
! <WindowConstruction>,Construction Name,Index,#Layers,Roughness,Conductance {W/m2-K},SHGC,Solar Transmittance at Normal Incidence,Visible Transmittance at Normal Incidence
! <WindowMaterial:Glazing>, Material Name, Optical Data Type, Spectral Data Set Name, Thickness {m}, Solar Transmittance,Front Solar Reflectance, Back Solar Reflectance, Visible Transmittance, Front Visible Reflectance,Back Visible Reflectance,Infrared Transmittance, Front Thermal Emissivity, Back Thermal Emissivity,Conductivity {W/m-K},Dirt Factor,Solar Diffusing
 WindowConstruction,STD_WINDOW_UVALUE_3.237_SHGC_0.39_VT_0.495,5,1,VerySmooth,3.178,0.402,0.383,0.495
 WindowMaterial:Glazing,THEORETICAL GLASS [66],SpectralAverage,,3.00000E-003,0.38320,0.56680,0.56680,0.49500,0.45500,0.45500,0.00000,0.90000,0.90000,1.99000E-002,1.00000,No
 WindowConstruction,STD_WINDOW_UVALUE_3.237_SHGC_0.39_VT_0.495_EAST,6,1,VerySmooth,3.178,0.402,0.383,0.495
 WindowMaterial:Glazing,THEORETICAL GLASS [66],SpectralAverage,,3.00000E-003,0.38320,0.56680,0.56680,0.49500,0.45500,0.45500,0.00000,0.90000,0.90000,1.99000E-002,1.00000,No
 WindowConstruction,STD_WINDOW_UVALUE_3.237_SHGC_0.49_VT_0.622,7,1,VerySmooth,3.178,0.501,0.483,0.622
 WindowMaterial:Glazing,THEORETICAL GLASS [67],SpectralAverage,,3.00000E-003,0.48260,0.46740,0.46740,0.62160,0.32840,0.32840,0.00000,0.90000,0.90000,1.99000E-002,1.00000,No
 WindowConstruction,STD_WINDOW_UVALUE_3.237_SHGC_0.39_VT_0.495_WEST,8,1,VerySmooth,3.178,0.402,0.383,0.495
 WindowMaterial:Glazing,THEORETICAL GLASS [66],SpectralAverage,,3.00000E-003,0.38320,0.56680,0.56680,0.49500,0.45500,0.45500,0.00000,0.90000,0.90000,1.99000E-002,1.00000,No
! <Shadowing/Sun Position Calculations Annual Simulations>, Calculation Method, Value {days}, Allowable Number Figures in Shadow Overlap {}, Polygon Clipping Algorithm, Sky Diffuse Modeling Algorithm, External Shading Calculation Method, Output External Shading Calculation Results, Disable Self-Shading Within Shading Zone Groups, Disable Self-Shading From Shading Zone Groups to Other Zones
Shadowing/Sun Position Calculations Annual Simulations,AverageOverDaysInFrequency,7,15000,SutherlandHodgman,SimpleSkyDiffuseModeling,InternalCalculation,No,No,No
! <Water Heater Information>,Type,Name,Volume {m3},Maximum Capacity {W},Standard Rated Recovery Efficiency, Standard Rated Energy Factor
! <Surface Convection Parameters>, Surface Name, Outside Model Assignment, Outside Area [m2], Outside Perimeter [m], Outside Height [m], Inside Model Assignment, Inside Height [m], Inside Perimeter Envelope [m], Inside Hydraulic Diameter [m], Window Wall Ratio, Window Location, Near Radiant {Yes/No}, Has Active HVAC {Yes/No}
Surface Convection Parameters,BASEMENT_WALL_NORTH,0,0.00,0.00,0.00,0,2.44,0.00,58.49,-999.00,0,No,No
Surface Convection Parameters,BASEMENT_WALL_EAST,0,0.00,0.00,0.00,0,2.44,0.00,58.49,-999.00,0,No,No
Surface Convection Parameters,BASEMENT_WALL_SOUTH,0,0.00,0.00,0.00,0,2.44,0.00,58.49,-999.00,0,No,No
Surface Convection Parameters,BASEMENT_WALL_WEST,0,0.00,0.00,0.00,0,2.44,0.00,58.49,-999.00,0,No,No
Surface Convection Parameters,BASEMENT_FLOOR,0,0.00,0.00,0.00,0,2.44,0.00,58.49,-999.00,0,No,No
Surface Convection Parameters,BASEMENT_CEILING_5,0,0.00,0.00,0.00,0,2.44,0.00,58.49,-999.00,0,No,No
Surface Convection Parameters,BASEMENT_CEILING_3,0,0.00,0.00,0.00,0,2.44,0.00,58.49,-999.00,0,No,No
Surface Convection Parameters,BASEMENT_CEILING_2,0,0.00,0.00,0.00,0,2.44,0.00,58.49,-999.00,0,No,No
Surface Convection Parameters,BASEMENT_CEILING_1,0,0.00,0.00,0.00,0,2.44,0.00,58.49,-999.00,0,No,No
Surface Convection Parameters,BASEMENT_CEILING_4,0,0.00,0.00,0.00,0,2.44,0.00,58.49,-999.00,0,No,No
Surface Convection Parameters,BASEMENT_INTERNALMASS_1,0,0.00,0.00,0.00,0,2.44,0.00,58.49,-999.00,0,No,No
Surface Convection Parameters,CORE_BOT_ZN_5_WALL_SOUTH,0,0.00,0.00,0.00,0,2.74,0.00,48.91,-999.00,0,No,No
Surface Convection Parameters,CORE_BOT_ZN_5_WALL_WEST,0,0.00,0.00,0.00,0,2.74,0.00,48.91,-999.00,0,No,No
Surface Convection Parameters,CORE_BOT_ZN_5_WALL_NORTH,0,0.00,0.00,0.00,0,2.74,0.00,48.91,-999.00,0,No,No
Surface Convection Parameters,CORE_BOT_ZN_5_WALL_EAST,0,0.00,0.00,0.00,0,2.74,0.00,48.91,-999.00,0,No,No
Surface Convection Parameters,CORE_BOT_ZN_5_FLOOR,0,0.00,0.00,0.00,0,2.74,0.00,48.91,-999.00,0,No,No
Surface Convection Parameters,CORE_BOT_ZN_5_CEILING,0,0.00,0.00,0.00,0,2.74,0.00,48.91,-999.00,0,No,No
Surface Convection Parameters,CORE_BOTTOM_INTERNALMASS_1,0,0.00,0.00,0.00,0,2.74,0.00,48.91,-999.00,0,No,No
Surface Convection Parameters,CORE_MID_ZN_5_WALL_SOUTH,0,0.00,0.00,0.00,0,2.74,0.00,48.91,-999.00,0,No,No
Surface Convection Parameters,CORE_MID_ZN_5_WALL_WEST,0,0.00,0.00,0.00,0,2.74,0.00,48.91,-999.00,0,No,No
Surface Convection Parameters,CORE_MID_ZN_5_WALL_NORTH,0,0.00,0.00,0.00,0,2.74,0.00,48.91,-999.00,0,No,No
Surface Convection Parameters,CORE_MID_ZN_5_WALL_EAST,0,0.00,0.00,0.00,0,2.74,0.00,48.91,-999.00,0,No,No
Surface Convection Parameters,CORE_MID_ZN_5_FLOOR,0,0.00,0.00,0.00,0,2.74,0.00,48.91,-999.00,0,No,No
Surface Convection Parameters,CORE_MID_ZN_5_CEILING,0,0.00,0.00,0.00,0,2.74,0.00,48.91,-999.00,0,No,No
Surface Convection Parameters,CORE_MID_INTERNALMASS_1,0,0.00,0.00,0.00,0,2.74,0.00,48.91,-999.00,0,No,No
Surface Convection Parameters,CORE_TOP_ZN_5_WALL_SOUTH,0,0.00,0.00,0.00,0,2.74,0.00,48.91,-999.00,0,No,No
Surface Convection Parameters,CORE_TOP_ZN_5_WALL_WEST,0,0.00,0.00,0.00,0,2.74,0.00,48.91,-999.00,0,No,No
Surface Convection Parameters,CORE_TOP_ZN_5_WALL_NORTH,0,0.00,0.00,0.00,0,2.74,0.00,48.91,-999.00,0,No,No
Surface Convection Parameters,CORE_TOP_ZN_5_WALL_EAST,0,0.00,0.00,0.00,0,2.74,0.00,48.91,-999.00,0,No,No
Surface Convection Parameters,CORE_TOP_ZN_5_FLOOR,0,0.00,0.00,0.00,0,2.74,0.00,48.91,-999.00,0,No,No
Surface Convection Parameters,CORE_TOP_ZN_5_CEILING,0,0.00,0.00,0.00,0,2.74,0.00,48.91,-999.00,0,No,No
Surface Convection Parameters,CORE_TOP_INTERNALMASS_1,0,0.00,0.00,0.00,0,2.74,0.00,48.91,-999.00,0,No,No
Surface Convection Parameters,PERIMETER_BOT_ZN_3_WALL_NORTH,0,869.22,270.84,47.56,0,2.74,73.11,8.07,0.58,3,No,No
Surface Convection Parameters,PERIMETER_BOT_ZN_3_WALL_NORTH_WINDOW,0,869.22,270.84,47.56,0,2.74,73.11,8.07,0.58,5,No,No
Surface Convection Parameters,PERIMETER_BOT_ZN_3_WALL_WEST,0,0.00,0.00,0.00,0,2.74,73.11,8.07,0.58,0,No,No
Surface Convection Parameters,PERIMETER_BOT_ZN_3_WALL_SOUTH,0,0.00,0.00,0.00,0,2.74,73.11,8.07,0.58,0,No,No
Surface Convection Parameters,PERIMETER_BOT_ZN_3_WALL_EAST,0,0.00,0.00,0.00,0,2.74,73.11,8.07,0.58,0,No,No
Surface Convection Parameters,PERIMETER_BOT_ZN_3_FLOOR,0,0.00,0.00,0.00,0,2.74,73.11,8.07,0.58,0,No,No
Surface Convection Parameters,PERIMETER_BOT_ZN_3_CEILING,0,0.00,0.00,0.00,0,2.74,73.11,8.07,0.58,0,No,No
Surface Convection Parameters,PERIMETER_BOT_ZN_3_INTERNALMASS_1,0,0.00,0.00,0.00,0,2.74,73.11,8.07,0.58,0,No,No
Surface Convection Parameters,PERIMETER_BOT_ZN_2_WALL_EAST,0,579.48,270.84,47.56,0,2.74,48.74,7.58,0.58,3,No,No
Surface Convection Parameters,PERIMETER_BOT_ZN_2_WALL_EAST_WINDOW,0,579.48,270.84,47.56,0,2.74,48.74,7.58,0.58,5,No,No
Surface Convection Parameters,PERIMETER_BOT_ZN_2_WALL_NORTH,0,0.00,0.00,0.00,0,2.74,48.74,7.58,0.58,0,No,No
Surface Convection Parameters,PERIMETER_BOT_ZN_2_WALL_WEST,0,0.00,0.00,0.00,0,2.74,48.74,7.58,0.58,0,No,No
Surface Convection Parameters,PERIMETER_BOT_ZN_2_WALL_SOUTH,0,0.00,0.00,0.00,0,2.74,48.74,7.58,0.58,0,No,No
Surface Convection Parameters,PERIMETER_BOT_ZN_2_FLOOR,0,0.00,0.00,0.00,0,2.74,48.74,7.58,0.58,0,No,No
Surface Convection Parameters,PERIMETER_BOT_ZN_2_CEILING,0,0.00,0.00,0.00,0,2.74,48.74,7.58,0.58,0,No,No
Surface Convection Parameters,PERIMETER_BOT_ZN_2_INTERNALMASS_1,0,0.00,0.00,0.00,0,2.74,48.74,7.58,0.58,0,No,No
Surface Convection Parameters,PERIMETER_BOT_ZN_1_WALL_SOUTH,0,869.22,241.33,47.56,0,2.74,73.11,8.07,0.58,3,No,No
Surface Convection Parameters,PERIMETER_BOT_ZN_1_WALL_SOUTH_WINDOW,0,869.22,241.33,47.56,0,2.74,73.11,8.07,0.58,5,No,No
Surface Convection Parameters,PERIMETER_BOT_ZN_1_WALL_EAST,0,0.00,0.00,0.00,0,2.74,73.11,8.07,0.58,0,No,No
Surface Convection Parameters,PERIMETER_BOT_ZN_1_WALL_NORTH,0,0.00,0.00,0.00,0,2.74,73.11,8.07,0.58,0,No,No
Surface Convection Parameters,PERIMETER_BOT_ZN_1_WALL_WEST,0,0.00,0.00,0.00,0,2.74,73.11,8.07,0.58,0,No,No
Surface Convection Parameters,PERIMETER_BOT_ZN_1_FLOOR,0,0.00,0.00,0.00,0,2.74,73.11,8.07,0.58,0,No,No
Surface Convection Parameters,PERIMETER_BOT_ZN_1_CEILING,0,0.00,0.00,0.00,0,2.74,73.11,8.07,0.58,0,No,No
Surface Convection Parameters,PERIMETER_BOT_ZN_1_INTERNALMASS_1,0,0.00,0.00,0.00,0,2.74,73.11,8.07,0.58,0,No,No
Surface Convection Parameters,PERIMETER_BOT_ZN_4_WALL_WEST,0,579.48,192.59,47.56,0,2.74,48.74,7.58,0.58,3,No,No
Surface Convection Parameters,PERIMETER_BOT_ZN_4_WALL_WEST_WINDOW,0,579.48,192.59,47.56,0,2.74,48.74,7.58,0.58,5,No,No
Surface Convection Parameters,PERIMETER_BOT_ZN_4_WALL_SOUTH,0,0.00,0.00,0.00,0,2.74,48.74,7.58,0.58,0,No,No
Surface Convection Parameters,PERIMETER_BOT_ZN_4_WALL_EAST,0,0.00,0.00,0.00,0,2.74,48.74,7.58,0.58,0,No,No
Surface Convection Parameters,PERIMETER_BOT_ZN_4_WALL_NORTH,0,0.00,0.00,0.00,0,2.74,48.74,7.58,0.58,0,No,No
Surface Convection Parameters,PERIMETER_BOT_ZN_4_FLOOR,0,0.00,0.00,0.00,0,2.74,48.74,7.58,0.58,0,No,No
Surface Convection Parameters,PERIMETER_BOT_ZN_4_CEILING,0,0.00,0.00,0.00,0,2.74,48.74,7.58,0.58,0,No,No
Surface Convection Parameters,PERIMETER_BOT_ZN_4_INTERNALMASS_1,0,0.00,0.00,0.00,0,2.74,48.74,7.58,0.58,0,No,No
Surface Convection Parameters,PERIMETER_MID_ZN_3_WALL_NORTH,0,869.22,270.84,47.56,0,2.74,73.11,8.07,0.58,3,No,No
Surface Convection Parameters,PERIMETER_MID_ZN_3_WALL_NORTH_WINDOW,0,869.22,270.84,47.56,0,2.74,73.11,8.07,0.58,5,No,No
Surface Convection Parameters,PERIMETER_MID_ZN_3_WALL_WEST,0,0.00,0.00,0.00,0,2.74,73.11,8.07,0.58,0,No,No
Surface Convection Parameters,PERIMETER_MID_ZN_3_WALL_SOUTH,0,0.00,0.00,0.00,0,2.74,73.11,8.07,0.58,0,No,No
Surface Convection Parameters,PERIMETER_MID_ZN_3_WALL_EAST,0,0.00,0.00,0.00,0,2.74,73.11,8.07,0.58,0,No,No
Surface Convection Parameters,PERIMETER_MID_ZN_3_FLOOR,0,0.00,0.00,0.00,0,2.74,73.11,8.07,0.58,0,No,No
Surface Convection Parameters,PERIMETER_MID_ZN_3_CEILING,0,0.00,0.00,0.00,0,2.74,73.11,8.07,0.58,0,No,No
Surface Convection Parameters,PERIMETER_MID_ZN_3_INTERNALMASS_1,0,0.00,0.00,0.00,0,2.74,73.11,8.07,0.58,0,No,No
Surface Convection Parameters,PERIMETER_MID_ZN_2_WALL_EAST,0,579.48,270.84,47.56,0,2.74,48.74,7.58,0.58,3,No,No
Surface Convection Parameters,PERIMETER_MID_ZN_2_WALL_EAST_WINDOW,0,579.48,270.84,47.56,0,2.74,48.74,7.58,0.58,5,No,No
Surface Convection Parameters,PERIMETER_MID_ZN_2_WALL_NORTH,0,0.00,0.00,0.00,0,2.74,48.74,7.58,0.58,0,No,No
Surface Convection Parameters,PERIMETER_MID_ZN_2_WALL_WEST,0,0.00,0.00,0.00,0,2.74,48.74,7.58,0.58,0,No,No
Surface Convection Parameters,PERIMETER_MID_ZN_2_WALL_SOUTH,0,0.00,0.00,0.00,0,2.74,48.74,7.58,0.58,0,No,No
Surface Convection Parameters,PERIMETER_MID_ZN_2_FLOOR,0,0.00,0.00,0.00,0,2.74,48.74,7.58,0.58,0,No,No
Surface Convection Parameters,PERIMETER_MID_ZN_2_CEILING,0,0.00,0.00,0.00,0,2.74,48.74,7.58,0.58,0,No,No
Surface Convection Parameters,PERIMETER_MID_ZN_2_INTERNALMASS_1,0,0.00,0.00,0.00,0,2.74,48.74,7.58,0.58,0,No,No
Surface Convection Parameters,PERIMETER_MID_ZN_1_WALL_EAST,0,0.00,0.00,0.00,0,2.74,73.11,8.07,0.58,0,No,No
Surface Convection Parameters,PERIMETER_MID_ZN_1_WALL_SOUTH,0,869.22,241.33,47.56,0,2.74,73.11,8.07,0.58,3,No,No
Surface Convection Parameters,PERIMETER_MID_ZN_1_WALL_SOUTH_WINDOW,0,869.22,241.33,47.56,0,2.74,73.11,8.07,0.58,5,No,No
Surface Convection Parameters,PERIMETER_MID_ZN_1_WALL_NORTH,0,0.00,0.00,0.00,0,2.74,73.11,8.07,0.58,0,No,No
Surface Convection Parameters,PERIMETER_MID_ZN_1_WALL_WEST,0,0.00,0.00,0.00,0,2.74,73.11,8.07,0.58,0,No,No
Surface Convection Parameters,PERIMETER_MID_ZN_1_FLOOR,0,0.00,0.00,0.00,0,2.74,73.11,8.07,0.58,0,No,No
Surface Convection Parameters,PERIMETER_MID_ZN_1_CEILING,0,0.00,0.00,0.00,0,2.74,73.11,8.07,0.58,0,No,No
Surface Convection Parameters,PERIMETER_MID_ZN_1_INTERNALMASS_1,0,0.00,0.00,0.00,0,2.74,73.11,8.07,0.58,0,No,No
Surface Convection Parameters,PERIMETER_MID_ZN_4_WALL_WEST,0,579.48,192.59,47.56,0,2.74,48.74,7.58,0.58,3,No,No
Surface Convection Parameters,PERIMETER_MID_ZN_4_WALL_WEST_WINDOW,0,579.48,192.59,47.56,0,2.74,48.74,7.58,0.58,5,No,No
Surface Convection Parameters,PERIMETER_MID_ZN_4_WALL_SOUTH,0,0.00,0.00,0.00,0,2.74,48.74,7.58,0.58,0,No,No
Surface Convection Parameters,PERIMETER_MID_ZN_4_WALL_EAST,0,0.00,0.00,0.00,0,2.74,48.74,7.58,0.58,0,No,No
Surface Convection Parameters,PERIMETER_MID_ZN_4_WALL_NORTH,0,0.00,0.00,0.00,0,2.74,48.74,7.58,0.58,0,No,No
Surface Convection Parameters,PERIMETER_MID_ZN_4_FLOOR,0,0.00,0.00,0.00,0,2.74,48.74,7.58,0.58,0,No,No
Surface Convection Parameters,PERIMETER_MID_ZN_4_CEILING,0,0.00,0.00,0.00,0,2.74,48.74,7.58,0.58,0,No,No
Surface Convection Parameters,PERIMETER_MID_ZN_4_INTERNALMASS_1,0,0.00,0.00,0.00,0,2.74,48.74,7.58,0.58,0,No,No
Surface Convection Parameters,PERIMETER_TOP_ZN_3_WALL_NORTH,0,869.22,270.84,47.56,0,2.74,73.11,8.07,0.58,3,No,No
Surface Convection Parameters,PERIMETER_TOP_ZN_3_WALL_NORTH_WINDOW,0,869.22,270.84,47.56,0,2.74,73.11,8.07,0.58,5,No,No
Surface Convection Parameters,PERIMETER_TOP_ZN_3_WALL_WEST,0,0.00,0.00,0.00,0,2.74,73.11,8.07,0.58,0,No,No
Surface Convection Parameters,PERIMETER_TOP_ZN_3_WALL_SOUTH,0,0.00,0.00,0.00,0,2.74,73.11,8.07,0.58,0,No,No
Surface Convection Parameters,PERIMETER_TOP_ZN_3_WALL_EAST,0,0.00,0.00,0.00,0,2.74,73.11,8.07,0.58,0,No,No
Surface Convection Parameters,PERIMETER_TOP_ZN_3_FLOOR,0,0.00,0.00,0.00,0,2.74,73.11,8.07,0.58,0,No,No
Surface Convection Parameters,PERIMETER_TOP_ZN_3_CEILING,0,0.00,0.00,0.00,0,2.74,73.11,8.07,0.58,0,No,No
Surface Convection Parameters,PERIMETER_TOP_ZN_3_INTERNALMASS_1,0,0.00,0.00,0.00,0,2.74,73.11,8.07,0.58,0,No,No
Surface Convection Parameters,PERIMETER_TOP_ZN_2_WALL_EAST,0,579.48,270.84,47.56,0,2.74,48.74,7.58,0.58,3,No,No
Surface Convection Parameters,PERIMETER_TOP_ZN_2_WALL_EAST_WINDOW,0,579.48,270.84,47.56,0,2.74,48.74,7.58,0.58,5,No,No
Surface Convection Parameters,PERIMETER_TOP_ZN_2_WALL_NORTH,0,0.00,0.00,0.00,0,2.74,48.74,7.58,0.58,0,No,No
Surface Convection Parameters,PERIMETER_TOP_ZN_2_WALL_WEST,0,0.00,0.00,0.00,0,2.74,48.74,7.58,0.58,0,No,No
Surface Convection Parameters,PERIMETER_TOP_ZN_2_WALL_SOUTH,0,0.00,0.00,0.00,0,2.74,48.74,7.58,0.58,0,No,No
Surface Convection Parameters,PERIMETER_TOP_ZN_2_FLOOR,0,0.00,0.00,0.00,0,2.74,48.74,7.58,0.58,0,No,No
Surface Convection Parameters,PERIMETER_TOP_ZN_2_CEILING,0,0.00,0.00,0.00,0,2.74,48.74,7.58,0.58,0,No,No
Surface Convection Parameters,PERIMETER_TOP_ZN_2_INTERNALMASS_1,0,0.00,0.00,0.00,0,2.74,48.74,7.58,0.58,0,No,No
Surface Convection Parameters,PERIMETER_TOP_ZN_1_WALL_SOUTH,0,869.22,241.33,47.56,0,2.74,73.11,8.07,0.58,3,No,No
Surface Convection Parameters,PERIMETER_TOP_ZN_1_WALL_SOUTH_WINDOW,0,869.22,241.33,47.56,0,2.74,73.11,8.07,0.58,5,No,No
Surface Convection Parameters,PERIMETER_TOP_ZN_1_WALL_EAST,0,0.00,0.00,0.00,0,2.74,73.11,8.07,0.58,0,No,No
Surface Convection Parameters,PERIMETER_TOP_ZN_1_WALL_NORTH,0,0.00,0.00,0.00,0,2.74,73.11,8.07,0.58,0,No,No
Surface Convection Parameters,PERIMETER_TOP_ZN_1_WALL_WEST,0,0.00,0.00,0.00,0,2.74,73.11,8.07,0.58,0,No,No
Surface Convection Parameters,PERIMETER_TOP_ZN_1_FLOOR,0,0.00,0.00,0.00,0,2.74,73.11,8.07,0.58,0,No,No
Surface Convection Parameters,PERIMETER_TOP_ZN_1_CEILING,0,0.00,0.00,0.00,0,2.74,73.11,8.07,0.58,0,No,No
Surface Convection Parameters,PERIMETER_TOP_ZN_1_INTERNALMASS_1,0,0.00,0.00,0.00,0,2.74,73.11,8.07,0.58,0,No,No
Surface Convection Parameters,PERIMETER_TOP_ZN_4_WALL_WEST,0,579.48,192.59,47.56,0,2.74,48.74,7.58,0.58,3,No,No
Surface Convection Parameters,PERIMETER_TOP_ZN_4_WALL_WEST_WINDOW,0,579.48,192.59,47.56,0,2.74,48.74,7.58,0.58,5,No,No
Surface Convection Parameters,PERIMETER_TOP_ZN_4_WALL_SOUTH,0,0.00,0.00,0.00,0,2.74,48.74,7.58,0.58,0,No,No
Surface Convection Parameters,PERIMETER_TOP_ZN_4_WALL_EAST,0,0.00,0.00,0.00,0,2.74,48.74,7.58,0.58,0,No,No
Surface Convection Parameters,PERIMETER_TOP_ZN_4_WALL_NORTH,0,0.00,0.00,0.00,0,2.74,48.74,7.58,0.58,0,No,No
Surface Convection Parameters,PERIMETER_TOP_ZN_4_FLOOR,0,0.00,0.00,0.00,0,2.74,48.74,7.58,0.58,0,No,No
Surface Convection Parameters,PERIMETER_TOP_ZN_4_CEILING,0,0.00,0.00,0.00,0,2.74,48.74,7.58,0.58,0,No,No
Surface Convection Parameters,PERIMETER_TOP_ZN_4_INTERNALMASS_1,0,0.00,0.00,0.00,0,2.74,48.74,7.58,0.58,0,No,No
Surface Convection Parameters,GROUNDFLOOR_PLENUM_WEST,0,579.48,192.59,47.56,0,1.22,243.69,58.49,0.00,0,No,No
Surface Convection Parameters,GROUNDFLOOR_PLENUM_WALL_SOUTH,0,869.22,241.33,47.56,0,1.22,243.69,58.49,0.00,0,No,No
Surface Convection Parameters,GROUNDFLOOR_PLENUM_WALL_EAST,0,579.48,270.84,47.56,0,1.22,243.69,58.49,0.00,0,No,No
Surface Convection Parameters,GROUNDFLOOR_PLENUM_WALL_NORTH,0,869.22,270.84,47.56,0,1.22,243.69,58.49,0.00,0,No,No
Surface Convection Parameters,GROUNDFLOOR_PLENUM_FLOOR_5,0,0.00,0.00,0.00,0,1.22,243.69,58.49,0.00,0,No,No
Surface Convection Parameters,GROUNDFLOOR_PLENUM_FLOOR_1,0,0.00,0.00,0.00,0,1.22,243.69,58.49,0.00,0,No,No
Surface Convection Parameters,GROUNDFLOOR_PLENUM_FLOOR_2,0,0.00,0.00,0.00,0,1.22,243.69,58.49,0.00,0,No,No
Surface Convection Parameters,GROUNDFLOOR_PLENUM_FLOOR_3,0,0.00,0.00,0.00,0,1.22,243.69,58.49,0.00,0,No,No
Surface Convection Parameters,GROUNDFLOOR_PLENUM_FLOOR_4,0,0.00,0.00,0.00,0,1.22,243.69,58.49,0.00,0,No,No
Surface Convection Parameters,GROUNDFLOOR_PLENUM_CEILING,0,0.00,0.00,0.00,0,1.22,243.69,58.49,0.00,0,No,No
Surface Convection Parameters,MIDFLOOR_PLENUM_WALL_NORTH,0,869.22,270.84,47.56,0,1.22,243.69,58.49,0.00,0,No,No
Surface Convection Parameters,MIDFLOOR_PLENUM_WALL_WEST,0,579.48,192.59,47.56,0,1.22,243.69,58.49,0.00,0,No,No
Surface Convection Parameters,MIDFLOOR_PLENUM_WALL_SOUTH,0,869.22,241.33,47.56,0,1.22,243.69,58.49,0.00,0,No,No
Surface Convection Parameters,MIDFLOOR_PLENUM_WALL_EAST,0,579.48,270.84,47.56,0,1.22,243.69,58.49,0.00,0,No,No
Surface Convection Parameters,MIDFLOOR_PLENUM_FLOOR_1,0,0.00,0.00,0.00,0,1.22,243.69,58.49,0.00,0,No,No
Surface Convection Parameters,MIDFLOOR_PLENUM_FLOOR_4,0,0.00,0.00,0.00,0,1.22,243.69,58.49,0.00,0,No,No
Surface Convection Parameters,MIDFLOOR_PLENUM_FLOOR_2,0,0.00,0.00,0.00,0,1.22,243.69,58.49,0.00,0,No,No
Surface Convection Parameters,MIDFLOOR_PLENUM_FLOOR_3,0,0.00,0.00,0.00,0,1.22,243.69,58.49,0.00,0,No,No
Surface Convection Parameters,MIDFLOOR_PLENUM_FLOOR_5,0,0.00,0.00,0.00,0,1.22,243.69,58.49,0.00,0,No,No
Surface Convection Parameters,MIDFLOOR_PLENUM_CEILING,0,0.00,0.00,0.00,0,1.22,243.69,58.49,0.00,0,No,No
Surface Convection Parameters,TOPFLOOR_PLENUM_WALL_NORTH,0,869.22,241.33,47.56,0,1.22,243.69,58.49,0.00,0,No,No
Surface Convection Parameters,TOPFLOOR_PLENUM_WALL_EAST,0,579.48,270.84,47.56,0,1.22,243.69,58.49,0.00,0,No,No
Surface Convection Parameters,TOPFLOOR_PLENUM_WALL_WEST,0,579.48,192.59,47.56,0,1.22,243.69,58.49,0.00,0,No,No
Surface Convection Parameters,TOPFLOOR_PLENUM_WALL_SOUTH,0,869.22,270.84,47.56,0,1.22,243.69,58.49,0.00,0,No,No
Surface Convection Parameters,TOPFLOOR_PLENUM_FLOOR_1,0,0.00,0.00,0.00,0,1.22,243.69,58.49,0.00,0,No,No
Surface Convection Parameters,TOPFLOOR_PLENUM_FLOOR_4,0,0.00,0.00,0.00,0,1.22,243.69,58.49,0.00,0,No,No
Surface Convection Parameters,TOPFLOOR_PLENUM_FLOOR_2,0,0.00,0.00,0.00,0,1.22,243.69,58.49,0.00,0,No,No
Surface Convection Parameters,TOPFLOOR_PLENUM_FLOOR_3,0,0.00,0.00,0.00,0,1.22,243.69,58.49,0.00,0,No,No
Surface Convection Parameters,TOPFLOOR_PLENUM_FLOOR_5,0,0.00,0.00,0.00,0,1.22,243.69,58.49,0.00,0,No,No
Surface Convection Parameters,BUILDING_ROOF,0,3563.11,268.06,0.00,0,1.22,243.69,58.49,0.00,0,No,No
! <ZoneInfiltration Airflow Stats Nominal>,Name,Schedule Name,Zone Name, Zone Floor Area {m2}, # Zone Occupants,Design Volume Flow Rate {m3/s},Volume Flow Rate/Floor Area {m3/s/m2},Volume Flow Rate/Exterior Surface Area {m3/s/m2},ACH - Air Changes per Hour,Equation A - Constant Term Coefficient {},Equation B - Temperature Term Coefficient {1/C},Equation C - Velocity Term Coefficient {s/m}, Equation D - Velocity Squared Term Coefficient {s2/m2}
 ZoneInfiltration Airflow Stats Nominal, CORE_TOP_INFILTRATION,INFIL_QUARTER_ON_SCH,CORE_TOP,2532.32,136.2,0.772,3.049E-004,N/A,0.400,1.000,0.000,0.000,0.000
 ZoneInfiltration Airflow Stats Nominal, PERIMETER_BOT_ZN_3_INFILTRATION,INFIL_QUARTER_ON_SCH,PERIMETER_BOT_ZN_3,313.41,16.9,5.970E-002,1.905E-004,2.976E-004,0.250,1.000,0.000,0.000,0.000
 ZoneInfiltration Airflow Stats Nominal, PERIMETER_BOT_ZN_2_INFILTRATION,INFIL_QUARTER_ON_SCH,PERIMETER_BOT_ZN_2,201.98,10.9,4.000E-002,1.980E-004,2.991E-004,0.260,1.000,0.000,0.000,0.000
 ZoneInfiltration Airflow Stats Nominal, PERIMETER_BOT_ZN_1_INFILTRATION,INFIL_QUARTER_ON_SCH,PERIMETER_BOT_ZN_1,313.42,16.9,5.970E-002,1.905E-004,2.976E-004,0.250,1.000,0.000,0.000,0.000
 ZoneInfiltration Airflow Stats Nominal, PERIMETER_BOT_ZN_4_INFILTRATION,INFIL_QUARTER_ON_SCH,PERIMETER_BOT_ZN_4,201.98,10.9,4.000E-002,1.980E-004,2.991E-004,0.260,1.000,0.000,0.000,0.000
 ZoneInfiltration Airflow Stats Nominal, PERIMETER_MID_ZN_3_INFILTRATION,INFIL_QUARTER_ON_SCH,PERIMETER_MID_ZN_3,313.41,16.9,5.970E-002,1.905E-004,2.976E-004,0.250,1.000,0.000,0.000,0.000
 ZoneInfiltration Airflow Stats Nominal, PERIMETER_MID_ZN_2_INFILTRATION,INFIL_QUARTER_ON_SCH,PERIMETER_MID_ZN_2,201.98,10.9,4.000E-002,1.980E-004,2.991E-004,0.260,1.000,0.000,0.000,0.000
 ZoneInfiltration Airflow Stats Nominal, PERIMETER_MID_ZN_1_INFILTRATION,INFIL_QUARTER_ON_SCH,PERIMETER_MID_ZN_1,313.42,16.9,5.970E-002,1.905E-004,2.976E-004,0.250,1.000,0.000,0.000,0.000
 ZoneInfiltration Airflow Stats Nominal, PERIMETER_MID_ZN_4_INFILTRATION,INFIL_QUARTER_ON_SCH,PERIMETER_MID_ZN_4,201.98,10.9,4.000E-002,1.980E-004,2.991E-004,0.260,1.000,0.000,0.000,0.000
 ZoneInfiltration Airflow Stats Nominal, PERIMETER_TOP_ZN_3_INFILTRATION,INFIL_QUARTER_ON_SCH,PERIMETER_TOP_ZN_3,313.41,16.9,0.155,4.955E-004,7.742E-004,0.650,1.000,0.000,0.000,0.000
 ZoneInfiltration Airflow Stats Nominal, PERIMETER_TOP_ZN_2_INFILTRATION,INFIL_QUARTER_ON_SCH,PERIMETER_TOP_ZN_2,201.98,10.9,0.102,5.030E-004,7.597E-004,0.660,1.000,0.000,0.000,0.000
 ZoneInfiltration Airflow Stats Nominal, PERIMETER_TOP_ZN_1_INFILTRATION,INFIL_QUARTER_ON_SCH,PERIMETER_TOP_ZN_1,313.42,16.9,0.155,4.955E-004,7.742E-004,0.650,1.000,0.000,0.000,0.000
 ZoneInfiltration Airflow Stats Nominal, PERIMETER_TOP_ZN_4_INFILTRATION,INFIL_QUARTER_ON_SCH,PERIMETER_TOP_ZN_4,201.98,10.9,0.102,5.030E-004,7.597E-004,0.660,1.000,0.000,0.000,0.000
 ZoneInfiltration Airflow Stats Nominal, GROUNDFLOOR_PLENUM_INFILTRATION,ALWAYS_ON,GROUNDFLOOR_PLENUM,3563.11,0.0,8.450E-002,2.372E-005,2.844E-004,7.003E-002,1.000,0.000,0.000,0.000
 ZoneInfiltration Airflow Stats Nominal, MIDFLOOR_PLENUM_INFILTRATION,ALWAYS_ON,MIDFLOOR_PLENUM,3563.11,0.0,8.450E-002,2.372E-005,2.844E-004,7.003E-002,1.000,0.000,0.000,0.000
 ZoneInfiltration Airflow Stats Nominal, TOPFLOOR_PLENUM_INFILTRATION,ALWAYS_ON,TOPFLOOR_PLENUM,3563.11,0.0,1.171,3.285E-004,3.032E-004,0.970,1.000,0.000,0.000,0.000
! <AirFlow Model>, Simple
 AirFlow Model, Simple
! <RoomAir Model>, Zone Name, Mixing/Mundt/UCSDDV/UCSDCV/UCSDUFI/UCSDUFE/User Defined
RoomAir Model,BASEMENT,Mixing/Well-Stirred
RoomAir Model,CORE_BOTTOM,Mixing/Well-Stirred
RoomAir Model,CORE_MID,Mixing/Well-Stirred
RoomAir Model,CORE_TOP,Mixing/Well-Stirred
RoomAir Model,PERIMETER_BOT_ZN_3,Mixing/Well-Stirred
RoomAir Model,PERIMETER_BOT_ZN_2,Mixing/Well-Stirred
RoomAir Model,PERIMETER_BOT_ZN_1,Mixing/Well-Stirred
RoomAir Model,PERIMETER_BOT_ZN_4,Mixing/Well-Stirred
RoomAir Model,PERIMETER_MID_ZN_3,Mixing/Well-Stirred
RoomAir Model,PERIMETER_MID_ZN_2,Mixing/Well-Stirred
RoomAir Model,PERIMETER_MID_ZN_1,Mixing/Well-Stirred
RoomAir Model,PERIMETER_MID_ZN_4,Mixing/Well-Stirred
RoomAir Model,PERIMETER_TOP_ZN_3,Mixing/Well-Stirred
RoomAir Model,PERIMETER_TOP_ZN_2,Mixing/Well-Stirred
RoomAir Model,PERIMETER_TOP_ZN_1,Mixing/Well-Stirred
RoomAir Model,PERIMETER_TOP_ZN_4,Mixing/Well-Stirred
RoomAir Model,GROUNDFLOOR_PLENUM,Mixing/Well-Stirred
RoomAir Model,MIDFLOOR_PLENUM,Mixing/Well-Stirred
RoomAir Model,TOPFLOOR_PLENUM,Mixing/Well-Stirred
! <AirflowNetwork Model:Control>, No Multizone or Distribution/Multizone with Distribution/Multizone without Distribution/Multizone with Distribution only during Fan Operation
AirflowNetwork Model:Control,NoMultizoneOrDistribution
! <Zone Volume Capacitance Multiplier>, Sensible Heat Capacity Multiplier, Moisture Capacity Multiplier, Carbon Dioxide Capacity Multiplier, Generic Contaminant Capacity Multiplier
Zone Volume Capacitance Multiplier,   1.000 ,   1.000,   1.000,   1.000
! <Load Timesteps in Zone Design Calculation Averaging Window>, Value
 Load Timesteps in Zone Design Calculation Averaging Window,    6
! <Heating Sizing Factor Information>, Sizing Factor ID, Value
 Heating Sizing Factor Information, Global,   1.2000    
 Heating Sizing Factor Information, Zone BASEMENT,   1.2000    
 Heating Sizing Factor Information, Zone CORE_BOTTOM,   1.2000    
 Heating Sizing Factor Information, Zone CORE_MID,   1.2000    
 Heating Sizing Factor Information, Zone CORE_TOP,   1.2000    
 Heating Sizing Factor Information, Zone PERIMETER_BOT_ZN_3,   1.2000    
 Heating Sizing Factor Information, Zone PERIMETER_BOT_ZN_2,   1.2000    
 Heating Sizing Factor Information, Zone PERIMETER_BOT_ZN_1,   1.2000    
 Heating Sizing Factor Information, Zone PERIMETER_BOT_ZN_4,   1.2000    
 Heating Sizing Factor Information, Zone PERIMETER_MID_ZN_3,   1.2000    
 Heating Sizing Factor Information, Zone PERIMETER_MID_ZN_2,   1.2000    
 Heating Sizing Factor Information, Zone PERIMETER_MID_ZN_1,   1.2000    
 Heating Sizing Factor Information, Zone PERIMETER_MID_ZN_4,   1.2000    
 Heating Sizing Factor Information, Zone PERIMETER_TOP_ZN_3,   1.2000    
 Heating Sizing Factor Information, Zone PERIMETER_TOP_ZN_2,   1.2000    
 Heating Sizing Factor Information, Zone PERIMETER_TOP_ZN_1,   1.2000    
 Heating Sizing Factor Information, Zone PERIMETER_TOP_ZN_4,   1.2000    
! <Cooling Sizing Factor Information>, Sizing Factor ID, Value
 Cooling Sizing Factor Information, Global,   1.2000    
 Cooling Sizing Factor Information, Zone BASEMENT,   1.2000    
 Cooling Sizing Factor Information, Zone CORE_BOTTOM,   1.2000    
 Cooling Sizing Factor Information, Zone CORE_MID,   1.2000    
 Cooling Sizing Factor Information, Zone CORE_TOP,   1.2000    
 Cooling Sizing Factor Information, Zone PERIMETER_BOT_ZN_3,   1.2000    
 Cooling Sizing Factor Information, Zone PERIMETER_BOT_ZN_2,   1.2000    
 Cooling Sizing Factor Information, Zone PERIMETER_BOT_ZN_1,   1.2000    
 Cooling Sizing Factor Information, Zone PERIMETER_BOT_ZN_4,   1.2000    
 Cooling Sizing Factor Information, Zone PERIMETER_MID_ZN_3,   1.2000    
 Cooling Sizing Factor Information, Zone PERIMETER_MID_ZN_2,   1.2000    
 Cooling Sizing Factor Information, Zone PERIMETER_MID_ZN_1,   1.2000    
 Cooling Sizing Factor Information, Zone PERIMETER_MID_ZN_4,   1.2000    
 Cooling Sizing Factor Information, Zone PERIMETER_TOP_ZN_3,   1.2000    
 Cooling Sizing Factor Information, Zone PERIMETER_TOP_ZN_2,   1.2000    
 Cooling Sizing Factor Information, Zone PERIMETER_TOP_ZN_1,   1.2000    
 Cooling Sizing Factor Information, Zone PERIMETER_TOP_ZN_4,   1.2000    
! <Zone Sizing Information>, Zone Name, Load Type, Calc Des Load {W}, User Des Load {W}, Calc Des Air Flow Rate {m3/s}, User Des Air Flow Rate {m3/s}, Design Day Name, Date/Time of Peak, Temperature at Peak {C}, Humidity Ratio at Peak {kgWater/kgDryAir}, Floor Area {m2}, # Occupants, Calc Outdoor Air Flow Rate {m3/s}, Calc DOAS Heat Addition Rate {W}
 Zone Sizing Information, BASEMENT, Cooling, 47744.87428, 57293.84914, 3.67500, 4.41000, CHICAGO ANN CLG .4% CONDNS DB=>MWB, 7/21 07:00:00, 23.46300, 1.51361E-002, 3563.10602, 95.84760, 0.95850, 0.00000
 Zone Sizing Information, BASEMENT, Heating, 0.00000, 0.00000, 0.00000, 0.95850, CHICAGO ANN HTG 99.6% CONDNS DB, , -20.60000, 6.12575E-004, 3563.10602, 95.84760, 0.95850, 0.00000
 Zone Sizing Information, CORE_BOTTOM, Cooling, 113743.32572, 136491.99086, 8.23797, 9.88557, CHICAGO ANN CLG .4% CONDNS DB=>MWB, 7/21 07:00:00, 23.46300, 1.51361E-002, 2532.32320, 136.23900, 1.36240, 0.00000
 Zone Sizing Information, CORE_BOTTOM, Heating, 2619.43246, 3143.31895, 8.75323E-002, 1.36240, CHICAGO ANN HTG 99.6% CONDNS DB, 1/21 24:00:00, -20.60000, 6.12575E-004, 2532.32320, 136.23900, 1.36240, 0.00000
 Zone Sizing Information, CORE_MID, Cooling, 1264838.67554, 1517806.41064, 93.35109, 112.02131, CHICAGO ANN CLG .4% CONDNS DB=>MWB, 7/21 07:00:00, 23.46300, 1.51361E-002, 2532.32320, 136.23900, 13.62400, 0.00000
 Zone Sizing Information, CORE_MID, Heating, 128969.42547, 154763.31057, 4.30971, 13.62400, CHICAGO ANN HTG 99.6% CONDNS DB, 1/21 24:00:00, -20.60000, 6.12575E-004, 2532.32320, 136.23900, 13.62400, 0.00000
 Zone Sizing Information, CORE_TOP, Cooling, 183380.60840, 220056.73007, 14.94112, 17.92935, CHICAGO ANN CLG .4% CONDNS DB=>MWB, 7/21 18:00:00, 30.63200, 1.51361E-002, 2532.32320, 136.23900, 1.36240, 0.00000
 Zone Sizing Information, CORE_TOP, Heating, 96500.09482, 115800.11379, 3.22389, 3.86866, CHICAGO ANN HTG 99.6% CONDNS DB, 1/21 06:00:00, -20.60000, 6.12575E-004, 2532.32320, 136.23900, 1.36240, 0.00000
 Zone Sizing Information, PERIMETER_BOT_ZN_3, Cooling, 17260.30758, 20712.36910, 1.30344, 1.56412, CHICAGO ANN CLG .4% CONDNS DB=>MWB, 7/21 07:00:00, 23.46300, 1.51361E-002, 313.41284, 16.86160, 0.16860, 0.00000
 Zone Sizing Information, PERIMETER_BOT_ZN_3, Heating, 12340.84768, 14809.01722, 0.41232, 0.49479, CHICAGO ANN HTG 99.6% CONDNS DB, 1/21 24:00:00, -20.60000, 6.12575E-004, 313.41284, 16.86160, 0.16860, 0.00000
 Zone Sizing Information, PERIMETER_BOT_ZN_2, Cooling, 19460.89430, 23353.07316, 1.58551, 1.90262, CHICAGO ANN CLG .4% CONDNS DB=>MWB, 7/21 09:20:00, 27.92133, 1.51361E-002, 201.97515, 10.86630, 0.10870, 0.00000
 Zone Sizing Information, PERIMETER_BOT_ZN_2, Heating, 8395.77067, 10074.92481, 0.28051, 0.33661, CHICAGO ANN HTG 99.6% CONDNS DB, 1/21 24:00:00, -20.60000, 6.12575E-004, 201.97515, 10.86630, 0.10870, 0.00000
 Zone Sizing Information, PERIMETER_BOT_ZN_1, Cooling, 15397.86433, 18477.43720, 1.25451, 1.50541, CHICAGO ANN CLG .4% CONDNS DB=>MWB, 7/21 13:20:00, 32.84333, 1.51361E-002, 313.41969, 16.86200, 0.16860, 0.00000
 Zone Sizing Information, PERIMETER_BOT_ZN_1, Heating, 12562.76073, 15075.31287, 0.41974, 0.50368, CHICAGO ANN HTG 99.6% CONDNS DB, 1/21 24:00:00, -20.60000, 6.12575E-004, 313.41969, 16.86200, 0.16860, 0.00000
 Zone Sizing Information, PERIMETER_BOT_ZN_4, Cooling, 20051.30588, 24061.56705, 1.63362, 1.96034, CHICAGO ANN CLG .4% CONDNS DB=>MWB, 7/21 17:00:00, 31.70200, 1.51361E-002, 201.97515, 10.86630, 0.10870, 0.00000
 Zone Sizing Information, PERIMETER_BOT_ZN_4, Heating, 8381.36524, 10057.63829, 0.28003, 0.33604, CHICAGO ANN HTG 99.6% CONDNS DB, 1/21 24:00:00, -20.60000, 6.12575E-004, 201.97515, 10.86630, 0.10870, 0.00000
 Zone Sizing Information, PERIMETER_MID_ZN_3, Cooling, 198622.72691, 238347.27229, 14.90040, 17.88048, CHICAGO ANN CLG .4% CONDNS DB=>MWB, 7/21 07:00:00, 23.46300, 1.51361E-002, 313.41284, 16.86160, 1.68600, 0.00000
 Zone Sizing Information, PERIMETER_MID_ZN_3, Heating, 154078.63857, 184894.36628, 5.14796, 6.17755, CHICAGO ANN HTG 99.6% CONDNS DB, 1/21 24:00:00, -20.60000, 6.12575E-004, 313.41284, 16.86160, 1.68600, 0.00000
 Zone Sizing Information, PERIMETER_MID_ZN_2, Cooling, 213600.05639, 256320.06766, 17.40236, 20.88283, CHICAGO ANN CLG .4% CONDNS DB=>MWB, 7/21 09:40:00, 28.52767, 1.51361E-002, 201.97515, 10.86630, 1.08700, 0.00000
 Zone Sizing Information, PERIMETER_MID_ZN_2, Heating, 102067.11352, 122480.53622, 3.41017, 4.09221, CHICAGO ANN HTG 99.6% CONDNS DB, 1/21 06:00:00, -20.60000, 6.12575E-004, 201.97515, 10.86630, 1.08700, 0.00000
 Zone Sizing Information, PERIMETER_MID_ZN_1, Cooling, 168500.24728, 202200.29674, 13.72814, 16.47377, CHICAGO ANN CLG .4% CONDNS DB=>MWB, 7/21 13:30:00, 32.93250, 1.51361E-002, 313.41969, 16.86200, 1.68600, 0.00000
 Zone Sizing Information, PERIMETER_MID_ZN_1, Heating, 155234.44925, 186281.33910, 5.18658, 6.22389, CHICAGO ANN HTG 99.6% CONDNS DB, 1/21 24:00:00, -20.60000, 6.12575E-004, 313.41969, 16.86200, 1.68600, 0.00000
 Zone Sizing Information, PERIMETER_MID_ZN_4, Cooling, 221881.71995, 266258.06394, 18.07707, 21.69249, CHICAGO ANN CLG .4% CONDNS DB=>MWB, 7/21 17:10:00, 31.52367, 1.51361E-002, 201.97515, 10.86630, 1.08700, 0.00000
 Zone Sizing Information, PERIMETER_MID_ZN_4, Heating, 103487.71077, 124185.25292, 3.45764, 4.14916, CHICAGO ANN HTG 99.6% CONDNS DB, 1/21 06:00:00, -20.60000, 6.12575E-004, 201.97515, 10.86630, 1.08700, 0.00000
 Zone Sizing Information, PERIMETER_TOP_ZN_3, Cooling, 42626.74025, 51152.08830, 10.81221, 12.97466, CHICAGO ANN CLG .4% CONDNS DB=>MWB, 7/21 07:00:00, 23.46300, 1.51361E-002, 313.41284, 16.86160, 0.16860, 0.00000
 Zone Sizing Information, PERIMETER_TOP_ZN_3, Heating, 26319.95364, 31583.94437, 0.87921, 1.05505, CHICAGO ANN HTG 99.6% CONDNS DB, 1/21 06:00:00, -20.60000, 6.12575E-004, 313.41284, 16.86160, 0.16860, 0.00000
 Zone Sizing Information, PERIMETER_TOP_ZN_2, Cooling, 20611.15274, 24733.38329, 1.67930, 2.01516, CHICAGO ANN CLG .4% CONDNS DB=>MWB, 7/21 09:50:00, 28.83083, 1.51361E-002, 201.97515, 10.86630, 0.10870, 0.00000
 Zone Sizing Information, PERIMETER_TOP_ZN_2, Heating, 17171.93023, 20606.31627, 0.57362, 0.68834, CHICAGO ANN HTG 99.6% CONDNS DB, 1/21 06:00:00, -20.60000, 6.12575E-004, 201.97515, 10.86630, 0.10870, 0.00000
 Zone Sizing Information, PERIMETER_TOP_ZN_1, Cooling, 17567.92247, 21081.50696, 1.43137, 1.71764, CHICAGO ANN CLG .4% CONDNS DB=>MWB, 7/21 14:00:00, 33.20000, 1.51361E-002, 313.41969, 16.86200, 0.16860, 0.00000
 Zone Sizing Information, PERIMETER_TOP_ZN_1, Heating, 26395.51950, 31674.62341, 0.88173, 1.05808, CHICAGO ANN HTG 99.6% CONDNS DB, 1/21 06:00:00, -20.60000, 6.12575E-004, 313.41969, 16.86200, 0.16860, 0.00000
 Zone Sizing Information, PERIMETER_TOP_ZN_4, Cooling, 23011.56816, 27613.88179, 1.87487, 2.24985, CHICAGO ANN CLG .4% CONDNS DB=>MWB, 7/21 17:10:00, 31.52367, 1.51361E-002, 201.97515, 10.86630, 0.10870, 0.00000
 Zone Sizing Information, PERIMETER_TOP_ZN_4, Heating, 17365.49563, 20838.59476, 0.58009, 0.69610, CHICAGO ANN HTG 99.6% CONDNS DB, 1/21 06:00:00, -20.60000, 6.12575E-004, 201.97515, 10.86630, 0.10870, 0.00000
! <System Sizing Information>, System Name, Load Type, Peak Load Kind, User Design Capacity, Calc Des Air Flow Rate [m3/s], User Des Air Flow Rate [m3/s], Design Day Name, Date/Time of Peak
 System Sizing Information, VAV_5, Cooling, Sensible, 59989.05, 4.41000, 4.41000, CHICAGO ANN CLG .4% CONDNS DB=>MWB, 7/21 00:00:00
 System Sizing Information, VAV_5, Heating, Sensible, 43209.30, 0.95850, 0.95850, CHICAGO ANN HTG 99.6% CONDNS DB, 1/21 00:10:00
 System Sizing Information, VAV_1, Cooling, Sensible, 240394.54, 16.81805, 16.81805, CHICAGO ANN CLG .4% CONDNS DB=>MWB, 7/21 00:00:00
 System Sizing Information, VAV_1, Heating, Sensible, 87905.92, 3.03352, 3.03352, CHICAGO ANN HTG 99.6% CONDNS DB, 1/21 24:00:00
 System Sizing Information, VAV_2, Cooling, Sensible, 2700776.37, 188.95087, 188.95087, CHICAGO ANN CLG .4% CONDNS DB=>MWB, 7/21 00:00:00
 System Sizing Information, VAV_2, Heating, Sensible, 884299.36, 34.26682, 34.26682, CHICAGO ANN HTG 99.6% CONDNS DB, 1/21 24:00:00
 System Sizing Information, VAV_3, Cooling, Sensible, 420140.76, 36.88666, 36.88666, CHICAGO ANN CLG .4% CONDNS DB=>MWB, 7/21 00:00:00
 System Sizing Information, VAV_3, Heating, Sensible, 93711.72, 7.36624, 7.36624, CHICAGO ANN HTG 99.6% CONDNS DB, 1/21 06:00:00
! <Component Sizing Information>, Component Type, Component Name, Input Field Description, Value
 Component Sizing Information, AirTerminal:SingleDuct:VAV:Reheat, BASEMENT VAV BOX COMPONENT, Design Size Maximum Air Flow Rate [m3/s], 4.41000
 Component Sizing Information, AirTerminal:SingleDuct:VAV:Reheat, BASEMENT VAV BOX COMPONENT, Design Size Constant Minimum Air Flow Fraction, 0.61567
 Component Sizing Information, AirTerminal:SingleDuct:VAV:Reheat, BASEMENT VAV BOX COMPONENT, User-Specified Constant Minimum Air Flow Fraction, 0.30000
 Component Sizing Information, AirTerminal:SingleDuct:VAV:Reheat, BASEMENT VAV BOX COMPONENT, Design Size Minimum Air Flow Rate [m3/s], 1.32300
 Component Sizing Information, AirTerminal:SingleDuct:VAV:Reheat, BASEMENT VAV BOX COMPONENT, Design Size Maximum Flow per Zone Floor Area during Reheat [m3/s-m2], 3.71305E-004
 Component Sizing Information, AirTerminal:SingleDuct:VAV:Reheat, BASEMENT VAV BOX COMPONENT, Design Size Maximum Flow Fraction during Reheat [], 0.30000
 Component Sizing Information, AirTerminal:SingleDuct:VAV:Reheat, BASEMENT VAV BOX COMPONENT, Design Size Maximum Reheat Water Flow Rate [m3/s], 0.00000
 Component Sizing Information, AirTerminal:SingleDuct:VAV:Reheat, BASEMENT VAV BOX COMPONENT, Design Size Reheat Coil Sizing Air Volume Flow Rate [m3/s], 1.32300
 Component Sizing Information, AirTerminal:SingleDuct:VAV:Reheat, BASEMENT VAV BOX COMPONENT, Design Size Reheat Coil Sizing Inlet Air Temperature [C], 16.70000
 Component Sizing Information, AirTerminal:SingleDuct:VAV:Reheat, BASEMENT VAV BOX COMPONENT, Design Size Reheat Coil Sizing Inlet Air Humidity Ratio [kgWater/kgDryAir], 8.00000E-003
 Component Sizing Information, Coil:Heating:Water, BASEMENT VAV BOX REHEAT COIL, Design Size Rated Capacity [W], 0.00000
 Component Sizing Information, Coil:Heating:Water, BASEMENT VAV BOX REHEAT COIL, Design Size Maximum Water Flow Rate [m3/s], 0.00000
 Component Sizing Information, Coil:Heating:Water, BASEMENT VAV BOX REHEAT COIL, Design Size U-Factor Times Area Value [W/K], 1.00000
! <Water Heating Coil Capacity Information>,Component Type,Name,Nominal Total Capacity {W}
Water Heating Coil Capacity Information,Coil:Heating:Water,BASEMENT VAV BOX REHEAT COIL,0.00
 Component Sizing Information, AirTerminal:SingleDuct:VAV:Reheat, CORE_BOTTOM VAV BOX COMPONENT, Design Size Maximum Air Flow Rate [m3/s], 9.88557
 Component Sizing Information, AirTerminal:SingleDuct:VAV:Reheat, CORE_BOTTOM VAV BOX COMPONENT, Design Size Constant Minimum Air Flow Fraction, 0.19520
 Component Sizing Information, AirTerminal:SingleDuct:VAV:Reheat, CORE_BOTTOM VAV BOX COMPONENT, User-Specified Constant Minimum Air Flow Fraction, 0.30000
 Component Sizing Information, AirTerminal:SingleDuct:VAV:Reheat, CORE_BOTTOM VAV BOX COMPONENT, Design Size Minimum Air Flow Rate [m3/s], 2.96567
 Component Sizing Information, AirTerminal:SingleDuct:VAV:Reheat, CORE_BOTTOM VAV BOX COMPONENT, Design Size Maximum Flow per Zone Floor Area during Reheat [m3/s-m2], 1.17113E-003
 Component Sizing Information, AirTerminal:SingleDuct:VAV:Reheat, CORE_BOTTOM VAV BOX COMPONENT, Design Size Maximum Flow Fraction during Reheat [], 0.30000
 Component Sizing Information, AirTerminal:SingleDuct:VAV:Reheat, CORE_BOTTOM VAV BOX COMPONENT, Design Size Maximum Reheat Water Flow Rate [m3/s], 0.00000
 Component Sizing Information, AirTerminal:SingleDuct:VAV:Reheat, CORE_BOTTOM VAV BOX COMPONENT, Design Size Reheat Coil Sizing Air Volume Flow Rate [m3/s], 2.96567
 Component Sizing Information, AirTerminal:SingleDuct:VAV:Reheat, CORE_BOTTOM VAV BOX COMPONENT, Design Size Reheat Coil Sizing Inlet Air Temperature [C], 16.70000
 Component Sizing Information, AirTerminal:SingleDuct:VAV:Reheat, CORE_BOTTOM VAV BOX COMPONENT, Design Size Reheat Coil Sizing Inlet Air Humidity Ratio [kgWater/kgDryAir], 8.00000E-003
 Component Sizing Information, Coil:Heating:Water, CORE_BOTTOM VAV BOX REHEAT COIL, Design Size Rated Capacity [W], 0.00000
 Component Sizing Information, Coil:Heating:Water, CORE_BOTTOM VAV BOX REHEAT COIL, Design Size Maximum Water Flow Rate [m3/s], 0.00000
 Component Sizing Information, Coil:Heating:Water, CORE_BOTTOM VAV BOX REHEAT COIL, Design Size U-Factor Times Area Value [W/K], 1.00000
Water Heating Coil Capacity Information,Coil:Heating:Water,CORE_BOTTOM VAV BOX REHEAT COIL,0.00
 Component Sizing Information, AirTerminal:SingleDuct:VAV:Reheat, CORE_MID VAV BOX COMPONENT, Design Size Maximum Air Flow Rate [m3/s], 112.02131
 Component Sizing Information, AirTerminal:SingleDuct:VAV:Reheat, CORE_MID VAV BOX COMPONENT, Design Size Constant Minimum Air Flow Fraction, 0.17226
 Component Sizing Information, AirTerminal:SingleDuct:VAV:Reheat, CORE_MID VAV BOX COMPONENT, User-Specified Constant Minimum Air Flow Fraction, 0.30000
 Component Sizing Information, AirTerminal:SingleDuct:VAV:Reheat, CORE_MID VAV BOX COMPONENT, Design Size Minimum Air Flow Rate [m3/s], 33.60639
 Component Sizing Information, AirTerminal:SingleDuct:VAV:Reheat, CORE_MID VAV BOX COMPONENT, Design Size Maximum Flow per Zone Floor Area during Reheat [m3/s-m2], 1.32710E-003
 Component Sizing Information, AirTerminal:SingleDuct:VAV:Reheat, CORE_MID VAV BOX COMPONENT, Design Size Maximum Flow Fraction during Reheat [], 0.30000
 Component Sizing Information, AirTerminal:SingleDuct:VAV:Reheat, CORE_MID VAV BOX COMPONENT, Design Size Maximum Reheat Water Flow Rate [m3/s], 2.41762E-003
 Component Sizing Information, AirTerminal:SingleDuct:VAV:Reheat, CORE_MID VAV BOX COMPONENT, Design Size Reheat Coil Sizing Air Volume Flow Rate [m3/s], 33.60639
 Component Sizing Information, AirTerminal:SingleDuct:VAV:Reheat, CORE_MID VAV BOX COMPONENT, Design Size Reheat Coil Sizing Inlet Air Temperature [C], 16.70000
 Component Sizing Information, AirTerminal:SingleDuct:VAV:Reheat, CORE_MID VAV BOX COMPONENT, Design Size Reheat Coil Sizing Inlet Air Humidity Ratio [kgWater/kgDryAir], 8.00000E-003
 Component Sizing Information, Coil:Heating:Water, CORE_MID VAV BOX REHEAT COIL, Design Size Rated Capacity [W], 109425.21031
 Component Sizing Information, Coil:Heating:Water, CORE_MID VAV BOX REHEAT COIL, Design Size Maximum Water Flow Rate [m3/s], 2.41762E-003
 Component Sizing Information, Coil:Heating:Water, CORE_MID VAV BOX REHEAT COIL, Design Size U-Factor Times Area Value [W/K], 1895.84439
Water Heating Coil Capacity Information,Coil:Heating:Water,CORE_MID VAV BOX REHEAT COIL,110067.88
 Component Sizing Information, AirTerminal:SingleDuct:VAV:Reheat, CORE_TOP VAV BOX COMPONENT, Design Size Maximum Air Flow Rate [m3/s], 17.92935
 Component Sizing Information, AirTerminal:SingleDuct:VAV:Reheat, CORE_TOP VAV BOX COMPONENT, Design Size Constant Minimum Air Flow Fraction, 0.10762
 Component Sizing Information, AirTerminal:SingleDuct:VAV:Reheat, CORE_TOP VAV BOX COMPONENT, User-Specified Constant Minimum Air Flow Fraction, 0.30000
 Component Sizing Information, AirTerminal:SingleDuct:VAV:Reheat, CORE_TOP VAV BOX COMPONENT, Design Size Minimum Air Flow Rate [m3/s], 5.37880
 Component Sizing Information, AirTerminal:SingleDuct:VAV:Reheat, CORE_TOP VAV BOX COMPONENT, Design Size Maximum Flow per Zone Floor Area during Reheat [m3/s-m2], 2.12406E-003
 Component Sizing Information, AirTerminal:SingleDuct:VAV:Reheat, CORE_TOP VAV BOX COMPONENT, Design Size Maximum Flow Fraction during Reheat [], 0.30000
 Component Sizing Information, AirTerminal:SingleDuct:VAV:Reheat, CORE_TOP VAV BOX COMPONENT, Design Size Maximum Reheat Water Flow Rate [m3/s], 2.39771E-003
 Component Sizing Information, AirTerminal:SingleDuct:VAV:Reheat, CORE_TOP VAV BOX COMPONENT, Design Size Reheat Coil Sizing Air Volume Flow Rate [m3/s], 5.37880
 Component Sizing Information, AirTerminal:SingleDuct:VAV:Reheat, CORE_TOP VAV BOX COMPONENT, Design Size Reheat Coil Sizing Inlet Air Temperature [C], 16.70000
 Component Sizing Information, AirTerminal:SingleDuct:VAV:Reheat, CORE_TOP VAV BOX COMPONENT, Design Size Reheat Coil Sizing Inlet Air Humidity Ratio [kgWater/kgDryAir], 8.00000E-003
 Component Sizing Information, Coil:Heating:Water, CORE_TOP VAV BOX REHEAT COIL, Design Size Rated Capacity [W], 108524.07597
 Component Sizing Information, Coil:Heating:Water, CORE_TOP VAV BOX REHEAT COIL, Design Size Maximum Water Flow Rate [m3/s], 2.39771E-003
 Component Sizing Information, Coil:Heating:Water, CORE_TOP VAV BOX REHEAT COIL, Design Size U-Factor Times Area Value [W/K], 2198.24086
Water Heating Coil Capacity Information,Coil:Heating:Water,CORE_TOP VAV BOX REHEAT COIL,109191.26
 Component Sizing Information, AirTerminal:SingleDuct:VAV:Reheat, PERIMETER_BOT_ZN_3 VAV BOX COMPONENT, Design Size Maximum Air Flow Rate [m3/s], 1.56412
 Component Sizing Information, AirTerminal:SingleDuct:VAV:Reheat, PERIMETER_BOT_ZN_3 VAV BOX COMPONENT, Design Size Constant Minimum Air Flow Fraction, 0.15269
 Component Sizing Information, AirTerminal:SingleDuct:VAV:Reheat, PERIMETER_BOT_ZN_3 VAV BOX COMPONENT, User-Specified Constant Minimum Air Flow Fraction, 0.30000
 Component Sizing Information, AirTerminal:SingleDuct:VAV:Reheat, PERIMETER_BOT_ZN_3 VAV BOX COMPONENT, Design Size Minimum Air Flow Rate [m3/s], 0.46924
 Component Sizing Information, AirTerminal:SingleDuct:VAV:Reheat, PERIMETER_BOT_ZN_3 VAV BOX COMPONENT, Design Size Maximum Flow per Zone Floor Area during Reheat [m3/s-m2], 1.49719E-003
 Component Sizing Information, AirTerminal:SingleDuct:VAV:Reheat, PERIMETER_BOT_ZN_3 VAV BOX COMPONENT, Design Size Maximum Flow Fraction during Reheat [], 0.30000
 Component Sizing Information, AirTerminal:SingleDuct:VAV:Reheat, PERIMETER_BOT_ZN_3 VAV BOX COMPONENT, Design Size Maximum Reheat Water Flow Rate [m3/s], 3.12415E-004
 Component Sizing Information, AirTerminal:SingleDuct:VAV:Reheat, PERIMETER_BOT_ZN_3 VAV BOX COMPONENT, Design Size Reheat Coil Sizing Air Volume Flow Rate [m3/s], 0.49479
 Component Sizing Information, AirTerminal:SingleDuct:VAV:Reheat, PERIMETER_BOT_ZN_3 VAV BOX COMPONENT, Design Size Reheat Coil Sizing Inlet Air Temperature [C], 16.70000
[...]
HeatTransfer Surface,GROUNDFLOOR_PLENUM_FLOOR_5,Floor,,CTF - ConductionTransferFunction,DROPCEILING,4.488,2.147,,2532.32,2532.32,2532.32,90.00,180.00,39.59,63.96,0.00,CORE_BOT_ZN_5_CEILING,Other/Same Surface Int Conv,ASHRAETARP,NoSun,NoWind,1.00,0.00,1.00,0.00,4
HeatTransfer Surface,GROUNDFLOOR_PLENUM_FLOOR_1,Floor,,CTF - ConductionTransferFunction,DROPCEILING,4.488,2.147,,313.42,313.42,313.42,225.00,180.00,6.47,63.96,0.00,PERIMETER_BOT_ZN_1_CEILING,Other/Same Surface Int Conv,ASHRAETARP,NoSun,NoWind,1.00,0.00,1.00,0.00,4
HeatTransfer Surface,GROUNDFLOOR_PLENUM_FLOOR_2,Floor,,CTF - ConductionTransferFunction,DROPCEILING,4.488,2.147,,201.98,201.98,201.98,45.00,180.00,6.47,48.74,0.00,PERIMETER_BOT_ZN_2_CEILING,Other/Same Surface Int Conv,ASHRAETARP,NoSun,NoWind,1.00,0.00,1.00,0.00,4
HeatTransfer Surface,GROUNDFLOOR_PLENUM_FLOOR_3,Floor,,CTF - ConductionTransferFunction,DROPCEILING,4.488,2.147,,313.41,313.41,313.41,45.00,180.00,6.47,63.96,0.00,PERIMETER_BOT_ZN_3_CEILING,Other/Same Surface Int Conv,ASHRAETARP,NoSun,NoWind,1.00,0.00,1.00,0.00,4
HeatTransfer Surface,GROUNDFLOOR_PLENUM_FLOOR_4,Floor,,CTF - ConductionTransferFunction,DROPCEILING,4.488,2.147,,201.98,201.98,201.98,315.00,180.00,6.47,39.59,0.00,PERIMETER_BOT_ZN_4_CEILING,Other/Same Surface Int Conv,ASHRAETARP,NoSun,NoWind,1.00,0.00,1.00,0.00,4
HeatTransfer Surface,GROUNDFLOOR_PLENUM_CEILING,Roof,,CTF - ConductionTransferFunction,INT-FLOOR-UNDERSIDE,3.003,1.918,,3563.11,3563.11,3563.11,0.00,0.00,73.11,48.74,0.00,GROUNDFLOOR_PLENUM_CEILING,Other/Same Surface Int Conv,ASHRAETARP,NoSun,NoWind,0.00,1.00,0.00,1.00,4
Zone Surfaces,MIDFLOOR_PLENUM,10
HeatTransfer Surface,MIDFLOOR_PLENUM_WALL_NORTH,Wall,,CTF - ConductionTransferFunction,MASS_R-7.6 CI_EXT-WALL,0.780,0.698,,89.13,89.13,89.13,0.00,90.00,73.11,1.22,0.00,ExternalEnvironment,DOE-2,ASHRAETARP,SunExposed,WindExposed,0.50,0.50,0.50,0.50,4
HeatTransfer Surface,MIDFLOOR_PLENUM_WALL_WEST,Wall,,CTF - ConductionTransferFunction,MASS_R-7.6 CI_EXT-WALL,0.780,0.698,,59.42,59.42,59.42,270.00,90.00,48.74,1.22,0.00,ExternalEnvironment,DOE-2,ASHRAETARP,SunExposed,WindExposed,0.50,0.50,0.50,0.50,4
HeatTransfer Surface,MIDFLOOR_PLENUM_WALL_SOUTH,Wall,,CTF - ConductionTransferFunction,MASS_R-7.6 CI_EXT-WALL,0.780,0.698,,89.13,89.13,89.13,180.00,90.00,73.11,1.22,0.00,ExternalEnvironment,DOE-2,ASHRAETARP,SunExposed,WindExposed,0.50,0.50,0.50,0.50,4
HeatTransfer Surface,MIDFLOOR_PLENUM_WALL_EAST,Wall,,CTF - ConductionTransferFunction,MASS_R-7.6 CI_EXT-WALL,0.780,0.698,,59.42,59.42,59.42,90.00,90.00,48.74,1.22,0.00,ExternalEnvironment,DOE-2,ASHRAETARP,SunExposed,WindExposed,0.50,0.50,0.50,0.50,4
HeatTransfer Surface,MIDFLOOR_PLENUM_FLOOR_1,Floor,,CTF - ConductionTransferFunction,DROPCEILING,4.488,2.147,,313.42,313.42,313.42,135.00,180.00,6.47,73.11,0.00,PERIMETER_MID_ZN_1_CEILING,Other/Same Surface Int Conv,ASHRAETARP,NoSun,NoWind,1.00,0.00,1.00,0.00,4
HeatTransfer Surface,MIDFLOOR_PLENUM_FLOOR_4,Floor,,CTF - ConductionTransferFunction,DROPCEILING,4.488,2.147,,201.98,201.98,201.98,225.00,180.00,6.47,48.74,0.00,PERIMETER_MID_ZN_4_CEILING,Other/Same Surface Int Conv,ASHRAETARP,NoSun,NoWind,1.00,0.00,1.00,0.00,4
HeatTransfer Surface,MIDFLOOR_PLENUM_FLOOR_2,Floor,,CTF - ConductionTransferFunction,DROPCEILING,4.488,2.147,,201.98,201.98,201.98,90.00,180.00,39.59,6.47,0.00,PERIMETER_MID_ZN_2_CEILING,Other/Same Surface Int Conv,ASHRAETARP,NoSun,NoWind,1.00,0.00,1.00,0.00,4
HeatTransfer Surface,MIDFLOOR_PLENUM_FLOOR_3,Floor,,CTF - ConductionTransferFunction,DROPCEILING,4.488,2.147,,313.41,313.41,313.41,315.00,180.00,6.47,73.11,0.00,PERIMETER_MID_ZN_3_CEILING,Other/Same Surface Int Conv,ASHRAETARP,NoSun,NoWind,1.00,0.00,1.00,0.00,4
HeatTransfer Surface,MIDFLOOR_PLENUM_FLOOR_5,Floor,,CTF - ConductionTransferFunction,DROPCEILING,4.488,2.147,,2532.32,2532.32,2532.32,90.00,180.00,39.59,63.96,0.00,CORE_MID_ZN_5_CEILING,Other/Same Surface Int Conv,ASHRAETARP,NoSun,NoWind,1.00,0.00,1.00,0.00,4
HeatTransfer Surface,MIDFLOOR_PLENUM_CEILING,Roof,,CTF - ConductionTransferFunction,INT-FLOOR-UNDERSIDE,3.003,1.918,,3563.11,3563.11,3563.11,270.00,0.00,48.74,73.11,0.00,MIDFLOOR_PLENUM_CEILING,Other/Same Surface Int Conv,ASHRAETARP,NoSun,NoWind,0.00,1.00,0.00,1.00,4
Zone Surfaces,TOPFLOOR_PLENUM,10
HeatTransfer Surface,TOPFLOOR_PLENUM_WALL_NORTH,Wall,,CTF - ConductionTransferFunction,MASS_R-7.6 CI_EXT-WALL,0.780,0.698,,89.13,89.13,89.13,180.00,90.00,73.11,1.22,0.00,ExternalEnvironment,DOE-2,ASHRAETARP,SunExposed,WindExposed,0.50,0.50,0.50,0.50,4
HeatTransfer Surface,TOPFLOOR_PLENUM_WALL_EAST,Wall,,CTF - ConductionTransferFunction,MASS_R-7.6 CI_EXT-WALL,0.780,0.698,,59.42,59.42,59.42,90.00,90.00,48.74,1.22,0.00,ExternalEnvironment,DOE-2,ASHRAETARP,SunExposed,WindExposed,0.50,0.50,0.50,0.50,4
HeatTransfer Surface,TOPFLOOR_PLENUM_WALL_WEST,Wall,,CTF - ConductionTransferFunction,MASS_R-7.6 CI_EXT-WALL,0.780,0.698,,59.42,59.42,59.42,270.00,90.00,48.74,1.22,0.00,ExternalEnvironment,DOE-2,ASHRAETARP,SunExposed,WindExposed,0.50,0.50,0.50,0.50,4
HeatTransfer Surface,TOPFLOOR_PLENUM_WALL_SOUTH,Wall,,CTF - ConductionTransferFunction,MASS_R-7.6 CI_EXT-WALL,0.780,0.698,,89.13,89.13,89.13,0.00,90.00,73.11,1.22,0.00,ExternalEnvironment,DOE-2,ASHRAETARP,SunExposed,WindExposed,0.50,0.50,0.50,0.50,4
HeatTransfer Surface,TOPFLOOR_PLENUM_FLOOR_1,Floor,,CTF - ConductionTransferFunction,DROPCEILING,4.488,2.147,,313.42,313.42,313.42,135.00,180.00,6.47,73.11,0.00,PERIMETER_TOP_ZN_1_CEILING,Other/Same Surface Int Conv,ASHRAETARP,NoSun,NoWind,1.00,0.00,1.00,0.00,4
HeatTransfer Surface,TOPFLOOR_PLENUM_FLOOR_4,Floor,,CTF - ConductionTransferFunction,DROPCEILING,4.488,2.147,,201.98,201.98,201.98,225.00,180.00,6.47,48.74,0.00,PERIMETER_TOP_ZN_4_CEILING,Other/Same Surface Int Conv,ASHRAETARP,NoSun,NoWind,1.00,0.00,1.00,0.00,4
HeatTransfer Surface,TOPFLOOR_PLENUM_FLOOR_2,Floor,,CTF - ConductionTransferFunction,DROPCEILING,4.488,2.147,,201.98,201.98,201.98,90.00,180.00,39.59,6.47,0.00,PERIMETER_TOP_ZN_2_CEILING,Other/Same Surface Int Conv,ASHRAETARP,NoSun,NoWind,1.00,0.00,1.00,0.00,4
HeatTransfer Surface,TOPFLOOR_PLENUM_FLOOR_3,Floor,,CTF - ConductionTransferFunction,DROPCEILING,4.488,2.147,,313.41,313.41,313.41,315.00,180.00,6.47,73.11,0.00,PERIMETER_TOP_ZN_3_CEILING,Other/Same Surface Int Conv,ASHRAETARP,NoSun,NoWind,1.00,0.00,1.00,0.00,4
HeatTransfer Surface,TOPFLOOR_PLENUM_FLOOR_5,Floor,,CTF - ConductionTransferFunction,DROPCEILING,4.488,2.147,,2532.32,2532.32,2532.32,270.00,180.00,39.59,63.96,0.00,CORE_TOP_ZN_5_CEILING,Other/Same Surface Int Conv,ASHRAETARP,NoSun,NoWind,1.00,0.00,1.00,0.00,4
HeatTransfer Surface,BUILDING_ROOF,Roof,,CTF - ConductionTransferFunction,IEAD_R-15 CI_ROOF,0.383,0.357,,3563.11,3563.11,3563.11,0.00,0.00,73.11,48.74,0.00,ExternalEnvironment,DOE-2,ASHRAETARP,SunExposed,WindExposed,0.00,1.00,0.00,1.00,4
! <Environment>,Environment Name,Environment Type, Start Date, End Date, Start DayOfWeek, Duration {#days}, Source:Start DayOfWeek,  Use Daylight Saving, Use Holidays, Apply Weekend Holiday Rule,  Use Rain Values, Use Snow Values
! <Environment:Special Days>, Special Day Name, Special Day Type, Source, Start Date, Duration {#days}
! <Environment:Daylight Saving>, Daylight Saving Indicator, Source, Start Date, End Date
! <Environment:WarmupDays>, NumberofWarmupDays
Environment,CHICAGO ANN HTG 99.6% CONDNS DB,SizingPeriod:DesignDay,01/21,01/21,WinterDesignDay,1,N/A,N/A,N/A,N/A,N/A,N/A
Environment:Daylight Saving,No,SizingPeriod:DesignDay
! <Environment:Design Day Data>, Max Dry-Bulb Temp {C}, Temp Range {dC}, Temp Range Ind Type, Hum Ind Value at Max Temp, Hum Ind Type,Pressure {Pa}, Wind Direction {deg CW from N}, Wind Speed {m/s}, Clearness, Rain, Snow
! <Environment:Design Day Misc>,DayOfYear,ASHRAE A Coeff,ASHRAE B Coeff,ASHRAE C Coeff,Solar Constant-Annual Variation,Eq of Time {minutes}, Solar Declination Angle {deg}, Solar Model
Environment:Design Day Data,-20.60,0.00,DefaultMultipliers,99063,270,4.9,0.00,No,No
Environment:Design Day Misc, 21,1229.0,0.1415,5.7310E-002,1.0,-11.15,-20.1,ASHRAEClearSky
Environment:WarmupDays, 13
! <Tabular Report>,Style,Unit Conversion
Tabular Report,HTML,None
! <Warmup Convergence Information>,Zone Name,Environment Type/Name,Average Warmup Temperature Difference {deltaC},Std Dev Warmup Temperature Difference {deltaC},Max Temperature Pass/Fail Convergence,Min Temperature Pass/Fail Convergence,Average Warmup Load Difference {W},Std Dev Warmup Load Difference {W},Heating Load Pass/Fail Convergence,Cooling Load Pass/Fail Convergence
 Warmup Convergence Information,BASEMENT,SizingPeriod: CHICAGO ANN HTG 99.6% CONDNS DB,1.1656353014E-002,3.7256241773E-002,Pass,Pass,1.1397790816E-002,9.6103964099E-002,Pass,Pass
 Warmup Convergence Information,CORE_BOTTOM,SizingPeriod: CHICAGO ANN HTG 99.6% CONDNS DB,1.0241195716E-002,3.6397524210E-002,Pass,Pass,0.1501976553,0.6523524572,Pass,Pass
 Warmup Convergence Information,CORE_MID,SizingPeriod: CHICAGO ANN HTG 99.6% CONDNS DB,1.4017480369E-002,4.7382955737E-002,Pass,Pass,1.9538134810E-002,0.1567626679,Pass,Pass
 Warmup Convergence Information,CORE_TOP,SizingPeriod: CHICAGO ANN HTG 99.6% CONDNS DB,4.9944613219E-002,0.1124690962,Pass,Pass,9.3537827441E-003,2.5165217473E-002,Pass,Pass
 Warmup Convergence Information,PERIMETER_BOT_ZN_3,SizingPeriod: CHICAGO ANN HTG 99.6% CONDNS DB,9.9144319856E-003,4.1941984078E-002,Pass,Pass,1.7277291669E-003,1.1417434313E-002,Pass,Pass
 Warmup Convergence Information,PERIMETER_BOT_ZN_2,SizingPeriod: CHICAGO ANN HTG 99.6% CONDNS DB,9.2885245401E-003,4.2205215771E-002,Pass,Pass,3.2331546727E-003,2.2404518288E-002,Pass,Pass
 Warmup Convergence Information,PERIMETER_BOT_ZN_1,SizingPeriod: CHICAGO ANN HTG 99.6% CONDNS DB,9.9862655034E-003,4.2438477850E-002,Pass,Pass,1.6356544696E-003,1.0702221950E-002,Pass,Pass
 Warmup Convergence Information,PERIMETER_BOT_ZN_4,SizingPeriod: CHICAGO ANN HTG 99.6% CONDNS DB,9.6135826210E-003,4.2637404949E-002,Pass,Pass,3.3582623318E-003,2.3168986458E-002,Pass,Pass
 Warmup Convergence Information,PERIMETER_MID_ZN_3,SizingPeriod: CHICAGO ANN HTG 99.6% CONDNS DB,8.6394953618E-003,3.5690233336E-002,Pass,Pass,1.6231553014E-003,1.1454365196E-002,Pass,Pass
 Warmup Convergence Information,PERIMETER_MID_ZN_2,SizingPeriod: CHICAGO ANN HTG 99.6% CONDNS DB,1.2602076717E-002,4.5435829913E-002,Pass,Pass,3.1173877343E-003,2.1694874521E-002,Pass,Pass
 Warmup Convergence Information,PERIMETER_MID_ZN_1,SizingPeriod: CHICAGO ANN HTG 99.6% CONDNS DB,8.7220552286E-003,3.5809921268E-002,Pass,Pass,1.4913944545E-003,1.0364051975E-002,Pass,Pass
 Warmup Convergence Information,PERIMETER_MID_ZN_4,SizingPeriod: CHICAGO ANN HTG 99.6% CONDNS DB,1.3053065307E-002,4.6643622879E-002,Pass,Pass,3.2012189908E-003,2.2164301094E-002,Pass,Pass
 Warmup Convergence Information,PERIMETER_TOP_ZN_3,SizingPeriod: CHICAGO ANN HTG 99.6% CONDNS DB,1.6057650164E-002,6.1574989639E-002,Pass,Pass,3.6909074200E-003,1.7098404346E-002,Pass,Pass
 Warmup Convergence Information,PERIMETER_TOP_ZN_2,SizingPeriod: CHICAGO ANN HTG 99.6% CONDNS DB,3.1570020923E-002,9.7476452426E-002,Pass,Pass,1.7808494040E-003,6.1958824495E-003,Pass,Pass
 Warmup Convergence Information,PERIMETER_TOP_ZN_1,SizingPeriod: CHICAGO ANN HTG 99.6% CONDNS DB,3.6309405350E-002,0.1034878307,Pass,Pass,1.2520448045E-003,4.0278976362E-003,Pass,Pass
 Warmup Convergence Information,PERIMETER_TOP_ZN_4,SizingPeriod: CHICAGO ANN HTG 99.6% CONDNS DB,3.0396639432E-002,9.5428411010E-002,Pass,Pass,1.8731866365E-003,6.6409193618E-003,Pass,Pass
 Warmup Convergence Information,GROUNDFLOOR_PLENUM,SizingPeriod: CHICAGO ANN HTG 99.6% CONDNS DB,1.5921018147E-003,1.8295536486E-003,Pass,Pass,0.0000000000,0.0000000000,Pass,Pass
 Warmup Convergence Information,MIDFLOOR_PLENUM,SizingPeriod: CHICAGO ANN HTG 99.6% CONDNS DB,2.6886084765E-003,2.8592357644E-003,Pass,Pass,0.0000000000,0.0000000000,Pass,Pass
 Warmup Convergence Information,TOPFLOOR_PLENUM,SizingPeriod: CHICAGO ANN HTG 99.6% CONDNS DB,2.2415737877E-002,1.8156348822E-002,Pass,Pass,0.0000000000,0.0000000000,Pass,Pass
Environment,CHICAGO ANN CLG .4% CONDNS DB=>MWB,SizingPeriod:DesignDay,07/21,07/21,SummerDesignDay,1,N/A,N/A,N/A,N/A,N/A,N/A
Environment:Daylight Saving,No,SizingPeriod:DesignDay
Environment:Design Day Data,33.20,10.70,DefaultMultipliers,99063,230,5.3,1.00,No,No
Environment:Design Day Misc,202,1084.4,0.2082,0.1365,1.0,-6.23,20.6,ASHRAEClearSky
Environment:WarmupDays,  7
 Warmup Convergence Information,BASEMENT,SizingPeriod: CHICAGO ANN CLG .4% CONDNS DB=>MWB,3.1976983953E-002,0.1388871162,Pass,Pass,1.1087444738E-002,8.3313217576E-002,Pass,Pass
 Warmup Convergence Information,CORE_BOTTOM,SizingPeriod: CHICAGO ANN CLG .4% CONDNS DB=>MWB,0.1361535157,0.3819470017,Pass,Pass,1.4620370044E-002,9.7005901968E-002,Pass,Pass
 Warmup Convergence Information,CORE_MID,SizingPeriod: CHICAGO ANN CLG .4% CONDNS DB=>MWB,0.2455945422,0.5033929063,Pass,Pass,1.5131529557E-002,9.7318572358E-002,Pass,Pass
 Warmup Convergence Information,CORE_TOP,SizingPeriod: CHICAGO ANN CLG .4% CONDNS DB=>MWB,7.5657623518E-002,0.4110147662,Pass,Pass,3.0689722198E-002,0.1070110214,Pass,Pass
 Warmup Convergence Information,PERIMETER_BOT_ZN_3,SizingPeriod: CHICAGO ANN CLG .4% CONDNS DB=>MWB,0.1200839375,0.3713284441,Pass,Pass,1.8813024716E-002,8.5797552438E-002,Pass,Pass
 Warmup Convergence Information,PERIMETER_BOT_ZN_2,SizingPeriod: CHICAGO ANN CLG .4% CONDNS DB=>MWB,0.1591902892,0.5390067441,Pass,Pass,2.9447712341E-002,0.1429863517,Pass,Pass
 Warmup Convergence Information,PERIMETER_BOT_ZN_1,SizingPeriod: CHICAGO ANN CLG .4% CONDNS DB=>MWB,0.1151296012,0.3601861910,Pass,Pass,1.8915462891E-002,8.7843741400E-002,Pass,Pass
 Warmup Convergence Information,PERIMETER_BOT_ZN_4,SizingPeriod: CHICAGO ANN CLG .4% CONDNS DB=>MWB,0.1668659000,0.5676553689,Pass,Pass,3.3936666975E-002,0.1454867800,Pass,Pass
 Warmup Convergence Information,PERIMETER_MID_ZN_3,SizingPeriod: CHICAGO ANN CLG .4% CONDNS DB=>MWB,0.2335690761,0.5422523304,Pass,Pass,1.8810796599E-002,8.5024339018E-002,Pass,Pass
 Warmup Convergence Information,PERIMETER_MID_ZN_2,SizingPeriod: CHICAGO ANN CLG .4% CONDNS DB=>MWB,0.3461317246,0.8206666335,Pass,Pass,2.8835577759E-002,0.1377215762,Pass,Pass
 Warmup Convergence Information,PERIMETER_MID_ZN_1,SizingPeriod: CHICAGO ANN CLG .4% CONDNS DB=>MWB,0.2188989192,0.5072051191,Pass,Pass,1.8776849460E-002,8.7275263024E-002,Pass,Pass
 Warmup Convergence Information,PERIMETER_MID_ZN_4,SizingPeriod: CHICAGO ANN CLG .4% CONDNS DB=>MWB,0.3708344608,0.8855363452,Pass,Pass,3.3328472963E-002,0.1404182884,Pass,Pass
 Warmup Convergence Information,PERIMETER_TOP_ZN_3,SizingPeriod: CHICAGO ANN CLG .4% CONDNS DB=>MWB,0.1522179341,0.7420219531,Pass,Pass,1.4414258283E-002,7.0727139059E-002,Pass,Pass
 Warmup Convergence Information,PERIMETER_TOP_ZN_2,SizingPeriod: CHICAGO ANN CLG .4% CONDNS DB=>MWB,7.7344515035E-002,0.4350460493,Pass,Pass,1.9417238876E-002,6.5169923831E-002,Pass,Pass
 Warmup Convergence Information,PERIMETER_TOP_ZN_1,SizingPeriod: CHICAGO ANN CLG .4% CONDNS DB=>MWB,6.4687620155E-002,0.3674550257,Pass,Pass,1.7204688833E-002,7.6360020875E-002,Pass,Pass
 Warmup Convergence Information,PERIMETER_TOP_ZN_4,SizingPeriod: CHICAGO ANN CLG .4% CONDNS DB=>MWB,8.7404017467E-002,0.4691308336,Pass,Pass,2.3007195681E-002,7.1441850539E-002,Pass,Pass
 Warmup Convergence Information,GROUNDFLOOR_PLENUM,SizingPeriod: CHICAGO ANN CLG .4% CONDNS DB=>MWB,1.1731866299E-002,1.2529206686E-002,Pass,Pass,0.0000000000,0.0000000000,Pass,Pass
 Warmup Convergence Information,MIDFLOOR_PLENUM,SizingPeriod: CHICAGO ANN CLG .4% CONDNS DB=>MWB,1.2589847287E-002,1.4578611982E-002,Pass,Pass,0.0000000000,0.0000000000,Pass,Pass
 Warmup Convergence Information,TOPFLOOR_PLENUM,SizingPeriod: CHICAGO ANN CLG .4% CONDNS DB=>MWB,6.5792430546E-002,4.7603491112E-002,Pass,Pass,0.0000000000,0.0000000000,Pass,Pass
Environment,RUNPERIOD 1,WeatherFileRunPeriod,06/20/2010,06/27/2010,Sunday,8,Use RunPeriod Specified Day,No,No,No,Yes,Yes
Environment:Daylight Saving,Yes,InputFile,03/14,11/07
Environment:Special Days,NEW YEARS DAY,Holiday,InputFile,01/01,  1
Environment:Special Days,VETERANS DAY,Holiday,InputFile,11/11,  1
Environment:Special Days,CHRISTMAS,Holiday,InputFile,12/25,  1
Environment:Special Days,INDEPENDENCE DAY,Holiday,InputFile,07/04,  1
Environment:Special Days,MLK DAY,Holiday,InputFile,01/18,  1
Environment:Special Days,PRESIDENTS DAY,Holiday,InputFile,02/15,  1
Environment:Special Days,MEMORIAL DAY,Holiday,InputFile,05/31,  1
Environment:Special Days,LABOR DAY,Holiday,InputFile,09/06,  1
Environment:Special Days,COLUMBUS DAY,Holiday,InputFile,10/11,  1
Environment:Special Days,THANKSGIVING,Holiday,InputFile,11/25,  1
Environment:WarmupDays,  8
 Warmup Convergence Information,BASEMENT,RunPeriod: RUNPERIOD 1,1.1930841497E-003,4.7804680509E-004,Pass,Pass,0.0000000000,0.0000000000,Pass,Pass
 Warmup Convergence Information,CORE_BOTTOM,RunPeriod: RUNPERIOD 1,0.1122441154,0.2790759744,Pass,Pass,0.0000000000,0.0000000000,Pass,Pass
 Warmup Convergence Information,CORE_MID,RunPeriod: RUNPERIOD 1,0.4880268115,0.5828414334,Pass,Pass,0.0000000000,0.0000000000,Pass,Pass
 Warmup Convergence Information,CORE_TOP,RunPeriod: RUNPERIOD 1,0.4649763547,0.7279632843,Pass,Pass,0.0000000000,0.0000000000,Pass,Pass
 Warmup Convergence Information,PERIMETER_BOT_ZN_3,RunPeriod: RUNPERIOD 1,0.1757471625,0.4082417758,Pass,Pass,0.0000000000,0.0000000000,Pass,Pass
 Warmup Convergence Information,PERIMETER_BOT_ZN_2,RunPeriod: RUNPERIOD 1,0.2666118545,0.6961944599,Pass,Pass,0.0000000000,0.0000000000,Pass,Pass
 Warmup Convergence Information,PERIMETER_BOT_ZN_1,RunPeriod: RUNPERIOD 1,0.1573074905,0.3724191456,Pass,Pass,0.0000000000,0.0000000000,Pass,Pass
 Warmup Convergence Information,PERIMETER_BOT_ZN_4,RunPeriod: RUNPERIOD 1,0.2580993265,0.6826444194,Pass,Pass,0.0000000000,0.0000000000,Pass,Pass
 Warmup Convergence Information,PERIMETER_MID_ZN_3,RunPeriod: RUNPERIOD 1,0.6728538503,0.8509342340,Pass,Pass,0.0000000000,0.0000000000,Pass,Pass
 Warmup Convergence Information,PERIMETER_MID_ZN_2,RunPeriod: RUNPERIOD 1,1.0803227738,1.3236404227,Pass,Pass,0.0000000000,0.0000000000,Pass,Pass
 Warmup Convergence Information,PERIMETER_MID_ZN_1,RunPeriod: RUNPERIOD 1,0.5879594445,0.7562589572,Pass,Pass,0.0000000000,0.0000000000,Pass,Pass
 Warmup Convergence Information,PERIMETER_MID_ZN_4,RunPeriod: RUNPERIOD 1,1.0877495012,1.3454648997,Pass,Pass,0.0000000000,0.0000000000,Pass,Pass
 Warmup Convergence Information,PERIMETER_TOP_ZN_3,RunPeriod: RUNPERIOD 1,1.7367606156,2.5324085200,Pass,Pass,0.0000000000,0.0000000000,Pass,Pass
 Warmup Convergence Information,PERIMETER_TOP_ZN_2,RunPeriod: RUNPERIOD 1,0.7501100498,1.1218837837,Pass,Pass,0.0000000000,0.0000000000,Pass,Pass
 Warmup Convergence Information,PERIMETER_TOP_ZN_1,RunPeriod: RUNPERIOD 1,0.4441691103,0.6780979687,Pass,Pass,0.0000000000,0.0000000000,Pass,Pass
 Warmup Convergence Information,PERIMETER_TOP_ZN_4,RunPeriod: RUNPERIOD 1,0.7826720029,1.1883656448,Pass,Pass,0.0000000000,0.0000000000,Pass,Pass
 Warmup Convergence Information,GROUNDFLOOR_PLENUM,RunPeriod: RUNPERIOD 1,8.0725625558E-003,6.1627897763E-003,Pass,Pass,0.0000000000,0.0000000000,Pass,Pass
 Warmup Convergence Information,MIDFLOOR_PLENUM,RunPeriod: RUNPERIOD 1,6.4284547939E-003,5.8634596587E-003,Pass,Pass,0.0000000000,0.0000000000,Pass,Pass
 Warmup Convergence Information,TOPFLOOR_PLENUM,RunPeriod: RUNPERIOD 1,4.1710971186E-002,2.9665380715E-002,Pass,Pass,0.0000000000,0.0000000000,Pass,Pass
! <Program Control Information:Threads/Parallel Sims>, Threading Supported,Maximum Number of Threads, Env Set Threads (OMP_NUM_THREADS), EP Env Set Threads (EP_OMP_NUM_THREADS), IDF Set Threads, Number of Threads Used (Interior Radiant Exchange), Number Nominal Surfaces, Number Parallel Sims
Program Control:Threads/Parallel Sims, No,1, N/A, N/A, N/A, N/A, N/A, N/A
End of Data
