  Processing Data Dictionary (Energy+.idd) File -- Complete
  Maximum number of Alpha Args=        4500
  Maximum number of Numeric Args=       21040
  Number of Object Definitions=         689
  Number of Section Definitions=           2
  Total Number of Alpha Fields=       16712
  Total Number of Numeric Fields=       38446
  Total Number of Fields=       55158
  Processing Input Data File (in.idf) -- Start
      1 !-Generator IDFEditor 1.44
      2 !-Option OriginalOrderTop UseSpecialFormat
      3 
      4 !-NOTE: All comments with '!-' are ignored by the IDFEditor and are generated automatically.
      5 !-      Use '!' comments if they need to be retained when using the IDFEditor.
      6 
      7 Output:Variable,Perimeter_top_ZN_3,Zone Mean Air Temperature,Detailed;
      8 
      9 Schedule:Compact,
     10     HTGSETP_SCH_PACU_VAV_bot,!- Name
     11     Temperature,             !- Schedule Type Limits Name
     12     Through: 12/31,          !- Field 1
     13     For: WinterDesignDay,    !- Field 2
     14     Until: 05:00, 15.6,      !- Field 4
     15     Until: 06:00, 17.6,      !- Field 6
     16     Until: 07:00, 19.6,      !- Field 8
     17     Until: 22:00, 21.0,      !- Field 10
     18     Until: 24:00, 15.6,      !- Field 12
     19     For: Weekdays,           !- Field 13
     20     Until: 05:00, 15.6,      !- Field 15
     21     Until: 06:00, 21.0,      !- Field 17
     22     Until: 07:00, 21.0,      !- Field 19
     23     Until: 22:00, 21.0,      !- Field 21
     24     Until: 24:00, 15.6,      !- Field 23
     25     For SummerDesignDay,     !- Field 24
     26     Until: 24:00, 15.6,      !- Field 26
     27     For: Saturday,           !- Field 27
     28     Until: 05:00, 15.6,      !- Field 29
     29     Until: 06:00, 21.0,      !- Field 31
     30     Until: 07:00, 21.0,      !- Field 33
     31     Until: 17:00, 21.0,      !- Field 35
     32     Until: 24:00, 15.6,      !- Field 37
     33     For:Sunday Holidays AllOtherDays,  !- Field 38
     34     Until: 24:00, 15.6;      !- Field 40
     35 
     36 Output:Variable,Perimeter_top_ZN_3,Zone Outdoor Air Drybulb Temperature,Detailed;
     37 Output:Variable,Custom_Zone_ClgT_Setpoint,Schedule Value,Detailed;
     38 Output:Variable,Perimeter_top_ZN_3 VAV Box Outlet Node,System Node Mass Flow Rate,Detailed;
     39 Output:Variable,Perimeter_top_ZN_3 VAV Box Outlet Node,System Node Temperature,Detailed;
     40 
     41 Output:EnergyManagementSystem,
     42     Verbose,                 !- Actuator Availability Dictionary Reporting
     43     None,                    !- Internal Variable Availability Dictionary Reporting
     44     None;                    !- EMS Runtime Language Debug Output Level
     45 
     46 ! Custom zone cooling setpoint
     47 Schedule:Constant,Custom_Zone_ClgT_Setpoint,Temperature,30;
     48 
     49 EnergyManagementSystem:Actuator,
     50     ZoneT_Setpoint_Reset,    !- Name
     51     Custom_Zone_ClgT_Setpoint,  !- Actuated Component Unique Name
     52     Schedule:Constant,       !- Actuated Component Type
     53     Schedule Value;          !- Actuated Component Control Type
     54 
     55 EnergyManagementSystem:Program,
     56     MyCustom_Zone_Clg_Setpoint,  !- Name
     57     if CurrentEnvironment == 3,  !- Program Line 1
     58     if hour<6,               !- Program Line 2
     59     Set ZoneT_Setpoint_Reset = 30,  !- A4
     60     elseif (Hour>=6) && (Hour<22),  !- A5
     61     Set ZoneT_Setpoint_Reset = @RandomUniform  16 24,  !- A6
     62     else,                    !- A7
     63     Set ZoneT_Setpoint_Reset = 30,  !- A8
     64     endif,                   !- A9
     65     else,                    !- A10
     66     if hour<6,               !- A11
     67     Set ZoneT_Setpoint_Reset = 30,  !- A12
     68     elseif (Hour>=6) && (Hour<22),  !- A13
     69     Set ZoneT_Setpoint_Reset = 16,  !- A14
     70     else,                    !- A15
     71     Set ZoneT_Setpoint_Reset = 30,  !- A16
     72     endif,                   !- A17
     73     endif;                   !- A18
     74 
     75 EnergyManagementSystem:ProgramCallingManager,
     76     MyCustom_Zone_ClgT_Reset_CallPoint,  !- Name
     77     BeginTimestepBeforePredictor,  !- EnergyPlus Model Calling Point
     78     MyCustom_Zone_Clg_Setpoint;  !- Program Name 1
     79 
     80 EnergyManagementSystem:Actuator,
     81     VAV_1_Flowrate_Setpoint, !- Name
     82     Perimeter_top_ZN_1 VAV Box Damper Node,  !- Actuated Component Unique Name
     83     System Node Setpoint,    !- Actuated Component Type
     84     Mass Flow Rate Setpoint; !- Actuated Component Control Type
     85 
     86 EnergyManagementSystem:Program,
     87     VAV_1_Flowrate_Set,      !- Name
     88     if CurrentEnvironment == 3,  !- Program Line 1
     89     Set VAV_1_Flowrate_Setpoint =0.85,  !- Program Line 2
     90     ELSE,                    !- A4
     91     Set VAV_1_Flowrate_Setpoint =NULL,  !- A5
     92     ENDIF;                   !- A6
     93 
     94 EnergyManagementSystem:ProgramCallingManager,
     95     EMS-based Setpoint Managers,  !- Name
     96     AfterPredictorAfterHVACManagers,  !- EnergyPlus Model Calling Point
     97     VAV_1_Flowrate_Set;      !- Program Name 1
     98 
     99 ! -----------------------------------------------------------------------
    100 ! The 90.1 Prototype Building Models were developed by Pacific Northwest National Laboratory (PNNL),
    101 ! under contract with the U.S. Department of Energy (DOE).  These building models were originally derived from
    102 ! DOE’s Commercial Reference Building Models with modifications from ASHRAE 90.1 committee,
    103 ! Advanced Energy Design Guide series, and other building industry expert input.
    104 ! The original purpose of developing these prototype building models was to measure energy saving impacts from
    105 ! newly published editions of ASHRAE Standard 90.1.  The basic building descriptions can be found in the Scorecards
    106 ! posted at this website.  The detailed descriptions of the prototype model development and addenda modeling
    107 ! strategies can be found in PNNL’s reports, entitled "Achieving 30% Goal: Energy and Cost Saving Analysis
    108 ! of ASHRAE/IES Standard 90.1-2010" and "Enhancements to ASHRAE Standard 90.1 Prototype Building Models",
    109 ! both posted at this website.
    110 ! -----------------------------------------------------------------------
    111 !
    112 ! BEGIN ECONOMIZER MAP
    113 ! Economizer Name, DX COIL Name
    114 ! PACU_VAV_bot_OA_Controller, PACU_VAV_bot_CoolC DXCoil
    115 ! PACU_VAV_mid_OA_Controller, PACU_VAV_mid_CoolC DXCoil
    116 ! PACU_VAV_top_OA_Controller, PACU_VAV_top_CoolC DXCoil
    117 ! END ECONOMIZER MAP
    118 !
    119 ! WeatherFile:  USA_FL_Miami.Intl.AP.722020_TMY3.epw
    120 ! IDF File:     /phome/comstd/ASHRAE90.1_2013_for_reporting/OfficeMedium/90.1_std2013/input.nobackup/PI.Oct2013_OfficeMedium_STD2013_Miami.dd.idf
    121 ! Run Case:     PI.Oct2013_OfficeMedium_STD2013_Miami
    122 ! GPARM parameters as input:
    123 !    Case = PI.Oct2013_OfficeMedium_STD2013_Miami
    124 !    weatherfile = USA_FL_Miami_TMY2.epw
    125 !    annual_run = yes
    126 !    slab_gtp = Zone1A_nonres_R0_0ftV_OfficeMedium_Miami_AddendumBB.gtp
    127 !    basement_tempt = OfficeMedium_STD2007_Miami_bsmt.idf
    128 !    avg_oa_tempt_ip = 75.76
    129 !    maxdiff_oa_tempt_ip = 14.35
    130 !    ext_wall_type = SteelFramedWall
    131 !    nonres_ext_wall_ufactor = 0.704104612
    132 !    roof_type = LightweightRoof
    133 !    nonres_roof_ufactor = 0.272556624
    134 !    roof_emissivity = 0.75
    135 !    roof_solar_absorp = 0.45
    136 !    nonres_window = Window_U_0.60_SHGC_0.25
    137 !    economizer = NoEconomizer
    138 !    skip_economizer_control = No
    139 !    sidelighting_control = yes_AY
    140 !    LPD_office = 8.826406542
    141 !    exterior_lights_watts = 0
    142 !    exterior_lights_watts_a = 623.03
    143 !    exterior_lights_watts_b = 7476.45
    144 !    avg_oa_tempt = 24.31111111
    145 !    maxdiff_oa_tempt = 7.972222222
    146 !    infil = 0.00056896
    147 !    oa_flow_per_area = 0.000431773
    148 !    SAT_reset_switch = No
    149 !    SAT_reset_T = NA
    150 !    door_infil = 1.04300287
    151 !    frac_ofpk = 0.144
    152 !    damper_sched = MinOA_Sched
    153 !    economizer_lockout = NoLockout
    154 !    heating_damper_act = Normal
    155 !    add_ck_pacu_vav_bot = Yes
    156 !    add_ck_pacu_vav_mid = Yes
    157 !    add_ck_pacu_vav_top = Yes
    158 !    core_bottom_mdp = 0.3
    159 !    perimeter_bot_zn_1_mdp = 0.314144253750149
    160 !    perimeter_bot_zn_2_mdp = 0.3
    161 !    perimeter_bot_zn_3_mdp = 0.323291276838756
    162 !    perimeter_bot_zn_4_mdp = 0.3
    163 !    core_mid_mdp = 0.358790110848353
    164 !    perimeter_mid_zn_1_mdp = 0.3
    165 !    perimeter_mid_zn_2_mdp = 0.3
    166 !    perimeter_mid_zn_3_mdp = 0.3
    167 !    perimeter_mid_zn_4_mdp = 0.3
    168 !    core_top_mdp = 0.341177534848771
    169 !    perimeter_top_zn_1_mdp = 0.3
    170 !    perimeter_top_zn_2_mdp = 0.3
    171 !    perimeter_top_zn_3_mdp = 0.3
    172 !    perimeter_top_zn_4_mdp = 0.3
    173 !    pacu_vav_bot_oaf = 1.19508883333333
    174 !    pacu_vav_mid_oaf = 1.19508883333333
    175 !    pacu_vav_top_oaf = 1.19508883333333
    176 !    BLDG_ELEVATORS_LIGHTS_FAN_SCH = ELEV_LIGHT_FAN_SCH_ADD_DF
    177 !    BLDG_ELEVATORS_LIGHTS_FAN_POWER = 125
    178 !    BLDG_EQUIP_SCH = BLDG_EQUIP_SCH_ADV
    179 !    addendum_cd = yes
    180 !    pv_generator = no
    181 !    pv_surface_area = 0
    182 !    STD189_overhang = no
    183 !    swh_et = 0.808039999
    184 !    swh_ua = 7.561562668
    185 !    ext_lgt_sch = Exterior_Lgt_ALWAYS_ON
    186 !    PACU_VAV_bot_ERV = No
    187 !    PACU_VAV_mid_ERV = No
    188 !    PACU_VAV_top_ERV = No
    189 !    LTG_SCH_SET = LTG_SET_STD2013
    190 !    transformer_size = 45000
    191 !    transformer_eff = 0.977
    192 !    PACU_VAV_bot_ERV_power = 907.476237916664
    193 !    PACU_VAV_mid_ERV_power = 907.476237916664
    194 !    PACU_VAV_top_ERV_power = 907.476237916664
    195 !    OA_BASED_OPTIMUM_START_EMS = yes
    196 !    OPTIMUM_START_SF_DEPENDENT_EMS = no
    197 !    wwr = 0.33
    198 !    pipe_heat_loss = 1277
    199 !    skip_EMSprogram = yes
    200 !    HtgSetP_Sch_PACU_VAV_bot = HTGSETP_SCH_YES_OPTIMUM
    201 !    HtgSetP_Sch_PACU_VAV_mid = HTGSETP_SCH_YES_OPTIMUM
    202 !    HtgSetP_Sch_PACU_VAV_top = HTGSETP_SCH_YES_OPTIMUM
    203 !    ClgSetP_Sch_PACU_VAV_bot = CLGSETP_SCH_YES_OPTIMUM
    204 !    ClgSetP_Sch_PACU_VAV_mid = CLGSETP_SCH_YES_OPTIMUM
    205 !    ClgSetP_Sch_PACU_VAV_top = CLGSETP_SCH_YES_OPTIMUM
    206 !    Wfile_TMY3 = USA_FL_Miami.Intl.AP.722020_TMY3.epw
    207 !    loadProfile = No
    208 !    receptacle_ctrl_occ_reduction_frac = 0.95308699
    209 !    receptacle_ctrl_unocc_reduction_frac = 0.769184602
    210 Version,8.0;
    211 
    212 Building,
    213     Medium Office,           !- Name
    214     0.0000,                  !- North Axis {deg}
    215     City,                    !- Terrain
    216     0.0400,                  !- Loads Convergence Tolerance Value
    217     0.2000,                  !- Temperature Convergence Tolerance Value {deltaC}
    218     FullInteriorAndExterior, !- Solar Distribution
    219     25,                      !- Maximum Number of Warmup Days
    220     6;                       !- Minimum Number of Warmup Days
    221 
    222 Timestep,4;
    223 SurfaceConvectionAlgorithm:Inside,TARP;
    224 SurfaceConvectionAlgorithm:Outside,TARP;
    225 HeatBalanceAlgorithm,ConductionTransferFunction;
    226 
    227 ShadowCalculation,
    228     AverageOverDaysInFrequency,  !- Calculation Method
    229     30;                      !- Calculation Frequency
    230 
    231 SimulationControl,
    232     Yes,                     !- Do Zone Sizing Calculation
    233     Yes,                     !- Do System Sizing Calculation
    234     Yes,                     !- Do Plant Sizing Calculation
    235     Yes,                     !- Run Simulation for Sizing Periods
    236     YES;                     !- Run Simulation for Weather File Run Periods
    237 
    238 RunPeriod,
    239     ,                        !- Name
    240     6,                       !- Begin Month
    241     20,                      !- Begin Day of Month
    242     6,                       !- End Month
    243     27,                      !- End Day of Month
    244     Sunday,                  !- Day of Week for Start Day
    245     No,                      !- Use Weather File Holidays and Special Days
    246     No,                      !- Use Weather File Daylight Saving Period
    247     No,                      !- Apply Weekend Holiday Rule
    248     Yes,                     !- Use Weather File Rain Indicators
    249     Yes;                     !- Use Weather File Snow Indicators
    250 
    251 ! US National Holidays
    252 RunPeriodControl:SpecialDays,
    253     New Years Day,           !- Name
    254     January 1,               !- Start Date
    255     1,                       !- Duration {days}
    256     Holiday;                 !- Special Day Type
    257 
    258 RunPeriodControl:SpecialDays,
    259     Veterans Day,            !- Name
    260     November 11,             !- Start Date
    261     1,                       !- Duration {days}
    262     Holiday;                 !- Special Day Type
    263 
    264 RunPeriodControl:SpecialDays,
    265     Christmas,               !- Name
    266     December 25,             !- Start Date
    267     1,                       !- Duration {days}
    268     Holiday;                 !- Special Day Type
    269 
    270 RunPeriodControl:SpecialDays,
    271     Independence Day,        !- Name
    272     July 4,                  !- Start Date
    273     1,                       !- Duration {days}
    274     Holiday;                 !- Special Day Type
    275 
    276 RunPeriodControl:SpecialDays,
    277     MLK Day,                 !- Name
    278     3rd Monday in January,   !- Start Date
    279     1,                       !- Duration {days}
    280     Holiday;                 !- Special Day Type
    281 
    282 RunPeriodControl:SpecialDays,
    283     Presidents Day,          !- Name
    284     3rd Monday in February,  !- Start Date
    285     1,                       !- Duration {days}
    286     Holiday;                 !- Special Day Type
    287 
    288 RunPeriodControl:SpecialDays,
    289     Memorial Day,            !- Name
    290     Last Monday in May,      !- Start Date
    291     1,                       !- Duration {days}
    292     Holiday;                 !- Special Day Type
    293 
    294 RunPeriodControl:SpecialDays,
    295     Labor Day,               !- Name
    296     1st Monday in September, !- Start Date
    297     1,                       !- Duration {days}
    298     Holiday;                 !- Special Day Type
    299 
    300 RunPeriodControl:SpecialDays,
    301     Columbus Day,            !- Name
    302     2nd Monday in October,   !- Start Date
    303     1,                       !- Duration {days}
    304     Holiday;                 !- Special Day Type
    305 
    306 RunPeriodControl:SpecialDays,
    307     Thanksgiving,            !- Name
    308     4th Thursday in November,!- Start Date
    309     1,                       !- Duration {days}
    310     Holiday;                 !- Special Day Type
    311 
    312 ! Daylight Saving Period in US
    313 RunPeriodControl:DaylightSavingTime,
    314     2nd Sunday in March,     !- Start Date
    315     1st Sunday in November;  !- End Date
    316 
    317 ! Location and design-day objects created by:
    318 ! Site:Location and design-day objects created by:
    319 ! /tools/bin/ddy2idf /phome/weather/EnergyPlus/tmy3.new/all/USA_FL_Miami.Intl.AP.722020_TMY3.ddy
    320 !
    321 Site:Location,
    322     Miami Intl Ap_FL_USA Design_Conditions,  !- Name
    323     25.82,                   !- Latitude {deg}
    324     -80.30,                  !- Longitude {deg}
    325     -5.00,                   !- Time Zone {hr}
    326     11.00;                   !- Elevation {m}
    327 
    328 SizingPeriod:DesignDay,
    329     Miami Intl Ap Ann Htg 99.6% Condns DB,  !- Name
    330     1,                       !- Month
    331     21,                      !- Day of Month
    332     WinterDesignDay,         !- Day Type
    333     8.7,                     !- Maximum Dry-Bulb Temperature {C}
    334     0.0,                     !- Daily Dry-Bulb Temperature Range {deltaC}
    335     DefaultMultipliers,      !- Dry-Bulb Temperature Range Modifier Type
    336     ,                        !- Dry-Bulb Temperature Range Modifier Day Schedule Name
    337     Wetbulb,                 !- Humidity Condition Type
    338     8.7,                     !- Wetbulb or DewPoint at Maximum Dry-Bulb {C}
    339     ,                        !- Humidity Condition Day Schedule Name
    340     ,                        !- Humidity Ratio at Maximum Dry-Bulb {kgWater/kgDryAir}
    341     ,                        !- Enthalpy at Maximum Dry-Bulb {J/kg}
    342     ,                        !- Daily Wet-Bulb Temperature Range {deltaC}
    343     101193.,                 !- Barometric Pressure {Pa}
    344     3.8,                     !- Wind Speed {m/s}
    345     340,                     !- Wind Direction {deg}
    346     No,                      !- Rain Indicator
    347     No,                      !- Snow Indicator
    348     No,                      !- Daylight Saving Time Indicator
    349     ASHRAEClearSky,          !- Solar Model Indicator
    350     ,                        !- Beam Solar Day Schedule Name
    351     ,                        !- Diffuse Solar Day Schedule Name
    352     ,                        !- ASHRAE Clear Sky Optical Depth for Beam Irradiance (taub) {dimensionless}
    353     ,                        !- ASHRAE Clear Sky Optical Depth for Diffuse Irradiance (taud) {dimensionless}
    354     0.00;                    !- Sky Clearness
    355 
    356 SizingPeriod:DesignDay,
    357     Miami Intl Ap Ann Clg .4% Condns DB=>MWB,  !- Name
    358     7,                       !- Month
    359     21,                      !- Day of Month
    360     SummerDesignDay,         !- Day Type
    361     33.2,                    !- Maximum Dry-Bulb Temperature {C}
    362     6.7,                     !- Daily Dry-Bulb Temperature Range {deltaC}
    363     DefaultMultipliers,      !- Dry-Bulb Temperature Range Modifier Type
    364     ,                        !- Dry-Bulb Temperature Range Modifier Day Schedule Name
    365     Wetbulb,                 !- Humidity Condition Type
    366     25.3,                    !- Wetbulb or DewPoint at Maximum Dry-Bulb {C}
    367     ,                        !- Humidity Condition Day Schedule Name
    368     ,                        !- Humidity Ratio at Maximum Dry-Bulb {kgWater/kgDryAir}
    369     ,                        !- Enthalpy at Maximum Dry-Bulb {J/kg}
    370     ,                        !- Daily Wet-Bulb Temperature Range {deltaC}
    371     101193.,                 !- Barometric Pressure {Pa}
    372     4.5,                     !- Wind Speed {m/s}
    373     140,                     !- Wind Direction {deg}
    374     No,                      !- Rain Indicator
    375     No,                      !- Snow Indicator
    376     No,                      !- Daylight Saving Time Indicator
    377     ASHRAETau,               !- Solar Model Indicator
    378     ,                        !- Beam Solar Day Schedule Name
    379     ,                        !- Diffuse Solar Day Schedule Name
    380     0.528,                   !- ASHRAE Clear Sky Optical Depth for Beam Irradiance (taub) {dimensionless}
    381     1.905;                   !- ASHRAE Clear Sky Optical Depth for Diffuse Irradiance (taud) {dimensionless}
    382 
    383 !
    384 ! Ground temperature object produced by /tools/bin/gt2idf /phome/comstd/_p.gtp/state.analyses/slab/output/Zone1A_nonres_R0_0ftV_OfficeMedium_Miami_AddendumBB.gtp
    385 Site:GroundTemperature:BuildingSurface,20.99,20.98,20.99,21.04,21.06,23.22,23.57,23.64,23.66,21.46,21.16,21.05;
    386 
    387 Site:WaterMainsTemperature,
    388     Correlation,             !- Calculation Method
    389     ,                        !- Temperature Schedule Name
    390     24.31111111,             !- Annual Average Outdoor Air Temperature {C}
    391     7.972222222;             !- Maximum Difference In Monthly Average Outdoor Air Temperatures {deltaC}
    392 
    393 ! ------------------------------------------------------------------
    394 ! $Id: OpaqueLibraryScript_v30.idf,v 1.5 2010/10/21 19:30:30 atha577 Exp $
    395 ! $Log: OpaqueLibraryScript_v30.idf,v $
    396 ! Revision 1.5  2010/10/21 19:30:30  atha577
    397 ! Removed bb constructions for skylights.
    398 !
    399 ! Revision 1.4  2010/10/16 00:49:56  atha577
    400 ! Minor change to bb code.
    401 !
    402 ! Revision 1.3  2010/10/16 00:08:35  atha577
    403 ! Added bb skylight constructions.
    404 !
    405 ! Revision 1.2  2010/01/20 21:56:42  d3l143
    406 ! reset R value of semi-heated Roof to 0.001 if the R values goes below 0.001.  V4.0 has a 0.001 threshold with it.
    407 !
    408 ! Revision 1.1  2010/01/20 21:49:30  d3l143
    409 ! Initial revision
    410 !
    411 ! Note:
    412 ! January 20, 2010: We experienced a problem in upgrading Warehouse from V3.0 to V4.0.
    413 !                   The R value of the semiheated roof goes to around 0.0002 for Miami and Ryihad which V4.0 compliants that it is below 0.001.
    414 !                   This was not a problem for V3.0.  Here we implemented a temporal solution to re-set the r value to 0.001 when it is below it.
    415 ! ------------------------------------------------------------------
    416 !
    417 Material,
    418     Std Wood 6inch,          !- Name
    419     MediumSmooth,            !- Roughness
    420     0.15,                    !- Thickness {m}
    421     0.12,                    !- Conductivity {W/m-K}
    422     540.0000,                !- Density {kg/m3}
    423     1210,                    !- Specific Heat {J/kg-K}
    424     0.9000000,               !- Thermal Absorptance
    425     0.7000000,               !- Solar Absorptance
    426     0.7000000;               !- Visible Absorptance
    427 
    428 Material,
    429     AC02 Acoustic Ceiling,   !- Name
    430     MediumSmooth,            !- Roughness
    431     1.2700000E-02,           !- Thickness {m}
    432     5.7000000E-02,           !- Conductivity {W/m-K}
    433     288.0000,                !- Density {kg/m3}
    434     1339.000,                !- Specific Heat {J/kg-K}
    435     0.9000000,               !- Thermal Absorptance
    436     0.7000000,               !- Solar Absorptance
    437     0.2000000;               !- Visible Absorptance
    438 
    439 Material,
    440     F07 25mm stucco,         !- Name
    441     Smooth,                  !- Roughness
    442     0.0254,                  !- Thickness {m}
    443     0.72,                    !- Conductivity {W/m-K}
    444     1856,                    !- Density {kg/m3}
    445     840,                     !- Specific Heat {J/kg-K}
    446     0.9,                     !- Thermal Absorptance
    447     0.7,                     !- Solar Absorptance
    448     0.7;                     !- Visible Absorptance
    449 
    450 Material,
    451     F08 Metal surface,       !- Name
    452     Smooth,                  !- Roughness
    453     0.0008,                  !- Thickness {m}
    454     45.28,                   !- Conductivity {W/m-K}
    455     7824,                    !- Density {kg/m3}
    456     500;                     !- Specific Heat {J/kg-K}
    457 
    458 Material,
    459     F08 Metal roof surface,  !- Name
    460     Smooth,                  !- Roughness
    461     0.0008,                  !- Thickness {m}
    462     45.28,                   !- Conductivity {W/m-K}
    463     7824,                    !- Density {kg/m3}
    464     500,                     !- Specific Heat {J/kg-K}
    465     0.75,                    !- Thermal Absorptance
    466     0.45;                    !- Solar Absorptance
    467 
    468 Material,
    469     F12 Asphalt shingles,    !- Name
    470     VeryRough,               !- Roughness
    471     0.0032,                  !- Thickness {m}
    472     0.04,                    !- Conductivity {W/m-K}
    473     1120,                    !- Density {kg/m3}
    474     1260,                    !- Specific Heat {J/kg-K}
    475     0.75,                    !- Thermal Absorptance
    476     0.45;                    !- Solar Absorptance
    477 
    478 Material,
    479     F13 Built-up roofing,    !- Name
    480     Rough,                   !- Roughness
    481     0.0095,                  !- Thickness {m}
    482     0.16,                    !- Conductivity {W/m-K}
    483     1120,                    !- Density {kg/m3}
    484     1460,                    !- Specific Heat {J/kg-K}
    485     0.75,                    !- Thermal Absorptance
    486     0.45;                    !- Solar Absorptance
    487 
    488 Material,
    489     G01 13mm gypsum board,   !- Name
    490     Smooth,                  !- Roughness
    491     0.0127,                  !- Thickness {m}
    492     0.1600,                  !- Conductivity {W/m-K}
    493     800.0000,                !- Density {kg/m3}
    494     1090.0000,               !- Specific Heat {J/kg-K}
    495     0.9000,                  !- Thermal Absorptance
    496     0.7000,                  !- Solar Absorptance
    497     0.5000;                  !- Visible Absorptance
    498 
    499 Material,
    500     G01 16mm gypsum board,   !- Name
    501     MediumSmooth,            !- Roughness
    502     0.0159,                  !- Thickness {m}
    503     0.16,                    !- Conductivity {W/m-K}
    504     800,                     !- Density {kg/m3}
    505     1090;                    !- Specific Heat {J/kg-K}
    506 
    507 Material,
    508     G02 16mm plywood,        !- Name
    509     Smooth,                  !- Roughness
    510     0.0159,                  !- Thickness {m}
    511     0.12,                    !- Conductivity {W/m-K}
    512     544,                     !- Density {kg/m3}
    513     1210;                    !- Specific Heat {J/kg-K}
    514 
    515 Material,
    516     M14 150mm heavyweight concrete roof,  !- Name
    517     MediumRough,             !- Roughness
    518     0.1524,                  !- Thickness {m}
    519     2.31,                    !- Conductivity {W/m-K}
    520     2322,                    !- Density {kg/m3}
    521     832;                     !- Specific Heat {J/kg-K}
    522 
    523 Material,
    524     100mm Normalweight concrete wall,  !- Name
    525     MediumRough,             !- Roughness
    526     0.1016,                  !- Thickness {m}
    527     2.31,                    !- Conductivity {W/m-K}
    528     2322,                    !- Density {kg/m3}
    529     832;                     !- Specific Heat {J/kg-K}
    530 
    531 Material,
    532     200mm Normalweight concrete wall,  !- Name
    533     MediumRough,             !- Roughness
    534     0.2032,                  !- Thickness {m}
    535     2.31,                    !- Conductivity {W/m-K}
    536     2322,                    !- Density {kg/m3}
    537     832;                     !- Specific Heat {J/kg-K}
    538 
    539 Material,
    540     100mm Normalweight concrete floor,  !- Name
    541     MediumRough,             !- Roughness
    542     0.1016,                  !- Thickness {m}
    543     2.31,                    !- Conductivity {W/m-K}
    544     2322,                    !- Density {kg/m3}
    545     832;                     !- Specific Heat {J/kg-K}
    546 
    547 Material,
    548     150mm Normalweight concrete floor,  !- Name
    549     MediumRough,             !- Roughness
    550     0.1524,                  !- Thickness {m}
    551     2.31,                    !- Conductivity {W/m-K}
    552     2322,                    !- Density {kg/m3}
    553     832;                     !- Specific Heat {J/kg-K}
    554 
    555 Material,
    556     200mm Normalweight concrete floor,  !- Name
    557     MediumRough,             !- Roughness
    558     0.2032,                  !- Thickness {m}
    559     2.31,                    !- Conductivity {W/m-K}
    560     2322,                    !- Density {kg/m3}
    561     832;                     !- Specific Heat {J/kg-K}
    562 
    563 Material,
    564     M10 200mm concrete block wall,  !- Name
    565     MediumRough,             !- Roughness
    566     0.2032,                  !- Thickness {m}
    567     0.72,                    !- Conductivity {W/m-K}
    568     800,                     !- Density {kg/m3}
    569     832;                     !- Specific Heat {J/kg-K}
    570 
    571 Material,
    572     M10 200mm concrete block basement wall,  !- Name
    573     MediumRough,             !- Roughness
    574     0.2032,                  !- Thickness {m}
    575     1.326,                   !- Conductivity {W/m-K}
    576     1842,                    !- Density {kg/m3}
    577     912;                     !- Specific Heat {J/kg-K}
    578 
    579 ! Name
    580 ! Roughness
    581 ! Thermal Resistance
    582 ! Absorptance:Thermal --
    583 ! Absorptance:Solar
    584 Material:NoMass,
    585     CP02 CARPET PAD,         !- Name
    586     VeryRough,               !- Roughness
    587     0.21648,                 !- Thermal Resistance {m2-K/W}
    588     0.9,                     !- Thermal Absorptance
    589     0.7,                     !- Solar Absorptance
    590     0.8;                     !- Visible Absorptance
    591 
    592 Material:NoMass,
    593     Air_Wall_Material,       !- Name
    594     Rough,                   !- Roughness
    595     0.2079491,               !- Thermal Resistance {m2-K/W}
    596     0.9,                     !- Thermal Absorptance
    597     0.7;                     !- Solar Absorptance
    598 
    599 Material:NoMass,
    600     Nonres_Roof_Insulation,  !- Name
    601     MediumSmooth,            !- Roughness
    602     3.47220376108688,        !- Thermal Resistance {m2-K/W}
    603     0.9,                     !- Thermal Absorptance
    604     0.7,                     !- Solar Absorptance
    605     0.7;                     !- Visible Absorptance
    606 
    607 Material:NoMass,
    608     Res_Roof_Insulation,     !- Name
    609     MediumSmooth,            !- Roughness
    610     0.0299387330245182,      !- Thermal Resistance {m2-K/W}
    611     0.9,                     !- Thermal Absorptance
    612     0.7,                     !- Solar Absorptance
    613     0.7;                     !- Visible Absorptance
    614 
    615 Material:NoMass,
    616     Semiheated_Roof_Insulation,  !- Name
    617     MediumSmooth,            !- Roughness
    618     0.0299387330245182,      !- Thermal Resistance {m2-K/W}
    619     0.9,                     !- Thermal Absorptance
    620     0.7,                     !- Solar Absorptance
    621     0.7;                     !- Visible Absorptance
    622 
    623 Material:NoMass,
    624     Nonres_Exterior_Wall_Insulation,  !- Name
    625     MediumSmooth,            !- Roughness
    626     1.0365220592115,         !- Thermal Resistance {m2-K/W}
    627     0.9,                     !- Thermal Absorptance
    628     0.7,                     !- Solar Absorptance
    629     0.7;                     !- Visible Absorptance
    630 
    631 Material:NoMass,
    632     Res_Exterior_Wall_Insulation,  !- Name
    633     MediumSmooth,            !- Roughness
    634     0.0299387330245182,      !- Thermal Resistance {m2-K/W}
    635     0.9,                     !- Thermal Absorptance
    636     0.7,                     !- Solar Absorptance
    637     0.7;                     !- Visible Absorptance
    638 
    639 Material:NoMass,
    640     Semiheated_Exterior_Wall_Insulation,  !- Name
    641     MediumSmooth,            !- Roughness
    642     0.0299387330245182,      !- Thermal Resistance {m2-K/W}
    643     0.9,                     !- Thermal Absorptance
    644     0.7,                     !- Solar Absorptance
    645     0.7;                     !- Visible Absorptance
    646 
    647 Material:NoMass,
    648     Nonres_Floor_Insulation, !- Name
    649     MediumSmooth,            !- Roughness
    650     0.0299387330245182,      !- Thermal Resistance {m2-K/W}
    651     0.9,                     !- Thermal Absorptance
    652     0.7,                     !- Solar Absorptance
    653     0.7;                     !- Visible Absorptance
    654 
    655 Material:NoMass,
    656     Res_Floor_Insulation,    !- Name
    657     MediumSmooth,            !- Roughness
    658     0.0299387330245182,      !- Thermal Resistance {m2-K/W}
    659     0.9,                     !- Thermal Absorptance
    660     0.7,                     !- Solar Absorptance
    661     0.7;                     !- Visible Absorptance
    662 
    663 Material:NoMass,
    664     Semiheated_Floor_Insulation,  !- Name
    665     MediumSmooth,            !- Roughness
    666     0.0299387330245182,      !- Thermal Resistance {m2-K/W}
    667     0.9,                     !- Thermal Absorptance
    668     0.7,                     !- Solar Absorptance
    669     0.7;                     !- Visible Absorptance
    670 
    671 Material:NoMass,
    672     Std Opaque Door Panel,   !- Name
    673     MediumRough,             !- Roughness
    674     0.123456790123457,       !- Thermal Resistance {m2-K/W}
    675     0.9,                     !- Thermal Absorptance
    676     0.7,                     !- Solar Absorptance
    677     0.7;                     !- Visible Absorptance
    678 
    679 Construction,
    680     InteriorFurnishings,     !- Name
    681     Std Wood 6inch;          !- Outside Layer
    682 
    683 Construction,
    684     Air_Wall,                !- Name
    685     Air_Wall_Material;       !- Outside Layer
    686 
    687 Construction,
    688     DropCeiling,             !- Name
    689     AC02 Acoustic Ceiling;   !- Outside Layer
    690 
    691 Construction,
    692     OpaqueDoor,              !- Name
    693     Std Opaque Door Panel;   !- Outside Layer
    694 
    695 Construction,
    696     AtticRoofDeck,           !- Name
    697     F12 Asphalt shingles,    !- Outside Layer
    698     G02 16mm plywood;        !- Layer 2
    699 
    700 Construction,
    701     int_wall,                !- Name
    702     G01 13mm gypsum board,   !- Outside Layer
    703     G01 13mm gypsum board;   !- Layer 2
    704 
    705 Construction,
    706     ext_slab_8in_with_carpet,!- Name
    707     200mm Normalweight concrete floor,  !- Outside Layer
    708     CP02 CARPET PAD;         !- Layer 2
    709 
    710 Construction,
    711     ext_slab_8in,            !- Name
    712     200mm Normalweight concrete floor;  !- Outside Layer
    713 
    714 Construction,
    715     ext_slab_6in_with_carpet,!- Name
    716     150mm Normalweight concrete floor,  !- Outside Layer
    717     CP02 CARPET PAD;         !- Layer 2
    718 
    719 Construction,
    720     ext_slab_6in,            !- Name
    721     150mm Normalweight concrete floor;  !- Outside Layer
    722 
    723 Construction,
    724     int_slab_floor,          !- Name
    725     100mm Normalweight concrete floor,  !- Outside Layer
    726     CP02 CARPET PAD;         !- Layer 2
    727 
    728 Construction,
    729     int_slab_ceiling,        !- Name
    730     CP02 CARPET PAD,         !- Outside Layer
    731     100mm Normalweight concrete floor;  !- Layer 2
    732 
    733 Construction,
    734     basement_wall,           !- Name
    735     M10 200mm concrete block basement wall;  !- Outside Layer
    736 
    737 Construction,
    738     int_wood_floor,          !- Name
    739     AC02 Acoustic Ceiling,   !- Outside Layer
    740     G02 16mm plywood,        !- Layer 2
    741     CP02 CARPET PAD;         !- Layer 3
    742 
    743 Construction,
    744     ext_soffit_floor,        !- Name
    745     G02 16mm plywood;        !- Outside Layer
    746 
    747 Construction,
    748     nonres_roof,             !- Name
    749     F13 Built-up roofing,    !- Outside Layer
    750     Nonres_Roof_Insulation,  !- Layer 2
    751     F08 Metal surface;       !- Layer 3
    752 
    753 Construction,
    754     res_roof,                !- Name
    755     F13 Built-up roofing,    !- Outside Layer
    756     Res_Roof_Insulation,     !- Layer 2
    757     F08 Metal surface;       !- Layer 3
    758 
    759 Construction,
    760     semiheated_roof,         !- Name
    761     F13 Built-up roofing,    !- Outside Layer
    762     Semiheated_Roof_Insulation,  !- Layer 2
    763     F08 Metal surface;       !- Layer 3
    764 
    765 Construction,
    766     nonres_ext_wall,         !- Name
    767     F07 25mm stucco,         !- Outside Layer
    768     G01 16mm gypsum board,   !- Layer 2
    769     Nonres_Exterior_Wall_Insulation,  !- Layer 3
    770     G01 16mm gypsum board;   !- Layer 4
    771 
    772 Construction,
    773     res_ext_wall,            !- Name
    774     F07 25mm stucco,         !- Outside Layer
    775     G01 16mm gypsum board,   !- Layer 2
    776     Res_Exterior_Wall_Insulation,  !- Layer 3
    777     G01 16mm gypsum board;   !- Layer 4
    778 
    779 Construction,
    780     semiheated_ext_wall,     !- Name
    781     F07 25mm stucco,         !- Outside Layer
    782     G01 16mm gypsum board,   !- Layer 2
    783     Semiheated_Exterior_Wall_Insulation,  !- Layer 3
    784     G01 16mm gypsum board;   !- Layer 4
    785 
    786 Construction,
    787     nonres_floor,            !- Name
    788     Nonres_Floor_Insulation, !- Outside Layer
    789     100mm Normalweight concrete floor,  !- Layer 2
    790     CP02 CARPET PAD;         !- Layer 3
    791 
    792 Construction,
    793     res_floor,               !- Name
    794     Res_Floor_Insulation,    !- Outside Layer
    795     100mm Normalweight concrete floor,  !- Layer 2
    796     CP02 CARPET PAD;         !- Layer 3
    797 
    798 Construction,
    799     semiheated_floor,        !- Name
    800     Semiheated_Floor_Insulation,  !- Outside Layer
    801     100mm Normalweight concrete floor,  !- Layer 2
    802     CP02 CARPET PAD;         !- Layer 3
    803 
    804 Construction,
    805     nonres_floor_ceiling,    !- Name
    806     CP02 CARPET PAD,         !- Outside Layer
    807     100mm Normalweight concrete floor,  !- Layer 2
    808     Nonres_Floor_Insulation; !- Layer 3
    809 
    810 Construction,
    811     res_floor_ceiling,       !- Name
    812     CP02 CARPET PAD,         !- Outside Layer
    813     100mm Normalweight concrete floor,  !- Layer 2
    814     Res_Floor_Insulation;    !- Layer 3
    815 
    816 Construction,
    817     semiheated_floor_ceiling,!- Name
    818     CP02 CARPET PAD,         !- Outside Layer
    819     100mm Normalweight concrete floor,  !- Layer 2
    820     Semiheated_Floor_Insulation;  !- Layer 3
    821 
    822 ! ------------------------------------------------------------------
    823 ! $Id: WindowsLibrary_v30.idf,v 1.6 2010/10/16 00:03:25 atha577 Exp $
    824 ! $Log: WindowsLibrary_v30.idf,v $
    825 ! Revision 1.6  2010/10/16 00:03:25  atha577
    826 ! Deleted bb skylight constructions. Added them to opaquelibraryscript.
    827 !
    828 ! Revision 1.5  2010/10/15 23:31:07  atha577
    829 ! Added addendum bb skylight constructions.
    830 !
    831 ! Revision 1.4  2010/10/14 22:53:47  atha577
    832 ! Added new skylight constructions for bb
    833 !
    834 ! Revision 1.3  2010/05/19 20:10:16  atha577
    835 ! *** empty log message ***
    836 !
    837 ! Revision 1.2  2010/05/19 20:08:49  atha577
    838 ! added bb constructions.
    839 !
    840 !
    841 ! Revision 1.1  2010/01/20 21:58:41  d3l143
    842 ! Initial revision
    843 ! Revised 5/19/2010: Added new constructions for bb from E+ window
    844 !       construction library
      ***** Tabs eliminated from above line
    845 !
    846 ! ------------------------------------------------------------------
    847 !
    848 WindowMaterial:Glazing,
    849     GREEN 6MM,               !- Name
    850     SpectralAverage,         !- Optical Data Type
    851     ,                        !- Window Glass Spectral Data Set Name
    852     0.006,                   !- Thickness {m}
    853     0.487,                   !- Solar Transmittance at Normal Incidence
    854     0.056,                   !- Front Side Solar Reflectance at Normal Incidence
    855     0.056,                   !- Back Side Solar Reflectance at Normal Incidence
    856     0.749,                   !- Visible Transmittance at Normal Incidence
    857     0.070,                   !- Front Side Visible Reflectance at Normal Incidence
    858     0.070,                   !- Back Side Visible Reflectance at Normal Incidence
    859     0.0,                     !- Infrared Transmittance at Normal Incidence
    860     0.84,                    !- Front Side Infrared Hemispherical Emissivity
    861     0.84,                    !- Back Side Infrared Hemispherical Emissivity
    862     0.9;                     !- Conductivity {W/m-K}
    863 
    864 ! ID 221
    865 WindowMaterial:Glazing,
    866     REF B CLEAR HI 6MM,      !- Name
    867     SpectralAverage,         !- Optical Data Type
    868     ,                        !- Window Glass Spectral Data Set Name
    869     0.006,                   !- Thickness {m}
    870     0.240,                   !- Solar Transmittance at Normal Incidence
    871     0.160,                   !- Front Side Solar Reflectance at Normal Incidence
    872     0.320,                   !- Back Side Solar Reflectance at Normal Incidence
    873     0.300,                   !- Visible Transmittance at Normal Incidence
    874     0.160,                   !- Front Side Visible Reflectance at Normal Incidence
    875     0.290,                   !- Back Side Visible Reflectance at Normal Incidence
    876     0.0,                     !- Infrared Transmittance at Normal Incidence
    877     0.84,                    !- Front Side Infrared Hemispherical Emissivity
    878     0.60,                    !- Back Side Infrared Hemispherical Emissivity
    879     0.9;                     !- Conductivity {W/m-K}
    880 
    881 WindowMaterial:Glazing,
    882     REF C CLEAR HI 6MM,      !- Name
    883     SpectralAverage,         !- Optical Data Type
    884     ,                        !- Window Glass Spectral Data Set Name
    885     0.006,                   !- Thickness {m}
    886     0.200,                   !- Solar Transmittance at Normal Incidence
    887     0.160,                   !- Front Side Solar Reflectance at Normal Incidence
    888     0.390,                   !- Back Side Solar Reflectance at Normal Incidence
    889     0.220,                   !- Visible Transmittance at Normal Incidence
    890     0.170,                   !- Front Side Visible Reflectance at Normal Incidence
    891     0.350,                   !- Back Side Visible Reflectance at Normal Incidence
    892     0.0,                     !- Infrared Transmittance at Normal Incidence
    893     0.84,                    !- Front Side Infrared Hemispherical Emissivity
    894     0.55,                    !- Back Side Infrared Hemispherical Emissivity
    895     0.9;                     !- Conductivity {W/m-K}
    896 
    897 WindowMaterial:Glazing,
    898     ECREF-1 COLORED 6MM,     !- Name
    899     SpectralAverage,         !- Optical Data Type
    900     ,                        !- Window Glass Spectral Data Set Name
    901     0.006,                   !- Thickness {m}
    902     0.099,                   !- Solar Transmittance at Normal Incidence
    903     0.219,                   !- Front Side Solar Reflectance at Normal Incidence
    904     0.219,                   !- Back Side Solar Reflectance at Normal Incidence
    905     0.155,                   !- Visible Transmittance at Normal Incidence
    906     0.073,                   !- Front Side Visible Reflectance at Normal Incidence
    907     0.073,                   !- Back Side Visible Reflectance at Normal Incidence
    908     0.0,                     !- Infrared Transmittance at Normal Incidence
    909     0.84,                    !- Front Side Infrared Hemispherical Emissivity
    910     0.84,                    !- Back Side Infrared Hemispherical Emissivity
    911     0.9;                     !- Conductivity {W/m-K}
    912 
    913 WindowMaterial:Glazing,
    914     REF B TINT MID 6MM,      !- Name
    915     SpectralAverage,         !- Optical Data Type
    916     ,                        !- Window Glass Spectral Data Set Name
    917     0.006,                   !- Thickness {m}
    918     0.100,                   !- Solar Transmittance at Normal Incidence
    919     0.110,                   !- Front Side Solar Reflectance at Normal Incidence
    920     0.410,                   !- Back Side Solar Reflectance at Normal Incidence
    921     0.130,                   !- Visible Transmittance at Normal Incidence
    922     0.100,                   !- Front Side Visible Reflectance at Normal Incidence
    923     0.320,                   !- Back Side Visible Reflectance at Normal Incidence
    924     0.0,                     !- Infrared Transmittance at Normal Incidence
    925     0.84,                    !- Front Side Infrared Hemispherical Emissivity
    926     0.45,                    !- Back Side Infrared Hemispherical Emissivity
    927     0.9;                     !- Conductivity {W/m-K}
    928 
    929 WindowMaterial:Glazing,
    930     CLEAR 6MM,               !- Name
    931     SpectralAverage,         !- Optical Data Type
    932     ,                        !- Window Glass Spectral Data Set Name
    933     0.006,                   !- Thickness {m}
    934     0.775,                   !- Solar Transmittance at Normal Incidence
    935     0.071,                   !- Front Side Solar Reflectance at Normal Incidence
    936     0.071,                   !- Back Side Solar Reflectance at Normal Incidence
    937     0.881,                   !- Visible Transmittance at Normal Incidence
    938     0.080,                   !- Front Side Visible Reflectance at Normal Incidence
    939     0.080,                   !- Back Side Visible Reflectance at Normal Incidence
    940     0.0,                     !- Infrared Transmittance at Normal Incidence
    941     0.84,                    !- Front Side Infrared Hemispherical Emissivity
    942     0.84,                    !- Back Side Infrared Hemispherical Emissivity
    943     0.9;                     !- Conductivity {W/m-K}
    944 
    945 WindowMaterial:Glazing,
    946     REF D CLEAR 6MM,         !- Name
    947     SpectralAverage,         !- Optical Data Type
    948     ,                        !- Window Glass Spectral Data Set Name
    949     0.006,                   !- Thickness {m}
    950     0.429,                   !- Solar Transmittance at Normal Incidence
    951     0.308,                   !- Front Side Solar Reflectance at Normal Incidence
    952     0.379,                   !- Back Side Solar Reflectance at Normal Incidence
    953     0.334,                   !- Visible Transmittance at Normal Incidence
    954     0.453,                   !- Front Side Visible Reflectance at Normal Incidence
    955     0.505,                   !- Back Side Visible Reflectance at Normal Incidence
    956     0.0,                     !- Infrared Transmittance at Normal Incidence
    957     0.84,                    !- Front Side Infrared Hemispherical Emissivity
    958     0.82,                    !- Back Side Infrared Hemispherical Emissivity
    959     0.9;                     !- Conductivity {W/m-K}
    960 
    961 WindowMaterial:Glazing,
    962     BLUE 6MM,                !- Name
    963     SpectralAverage,         !- Optical Data Type
    964     ,                        !- Window Glass Spectral Data Set Name
    965     0.006,                   !- Thickness {m}
    966     0.480,                   !- Solar Transmittance at Normal Incidence
    967     0.050,                   !- Front Side Solar Reflectance at Normal Incidence
    968     0.050,                   !- Back Side Solar Reflectance at Normal Incidence
    969     0.570,                   !- Visible Transmittance at Normal Incidence
    970     0.060,                   !- Front Side Visible Reflectance at Normal Incidence
    971     0.060,                   !- Back Side Visible Reflectance at Normal Incidence
    972     0.0,                     !- Infrared Transmittance at Normal Incidence
    973     0.84,                    !- Front Side Infrared Hemispherical Emissivity
    974     0.84,                    !- Back Side Infrared Hemispherical Emissivity
    975     0.9;                     !- Conductivity {W/m-K}
    976 
    977 WindowMaterial:Glazing,
    978     GREY 6MM,                !- Name
    979     SpectralAverage,         !- Optical Data Type
    980     ,                        !- Window Glass Spectral Data Set Name
    981     0.006,                   !- Thickness {m}
    982     0.455,                   !- Solar Transmittance at Normal Incidence
    983     0.053,                   !- Front Side Solar Reflectance at Normal Incidence
    984     0.053,                   !- Back Side Solar Reflectance at Normal Incidence
    985     0.431,                   !- Visible Transmittance at Normal Incidence
    986     0.052,                   !- Front Side Visible Reflectance at Normal Incidence
    987     0.052,                   !- Back Side Visible Reflectance at Normal Incidence
    988     0.0,                     !- Infrared Transmittance at Normal Incidence
    989     0.84,                    !- Front Side Infrared Hemispherical Emissivity
    990     0.84,                    !- Back Side Infrared Hemispherical Emissivity
    991     0.9;                     !- Conductivity {W/m-K}
    992 
    993 WindowMaterial:Glazing,
    994     LoE CLEAR 6MM,           !- Name
    995     SpectralAverage,         !- Optical Data Type
    996     ,                        !- Window Glass Spectral Data Set Name
    997     0.006,                   !- Thickness {m}
    998     0.600,                   !- Solar Transmittance at Normal Incidence
    999     0.170,                   !- Front Side Solar Reflectance at Normal Incidence
   1000     0.220,                   !- Back Side Solar Reflectance at Normal Incidence
   1001     0.840,                   !- Visible Transmittance at Normal Incidence
   1002     0.055,                   !- Front Side Visible Reflectance at Normal Incidence
   1003     0.078,                   !- Back Side Visible Reflectance at Normal Incidence
   1004     0.0,                     !- Infrared Transmittance at Normal Incidence
   1005     0.84,                    !- Front Side Infrared Hemispherical Emissivity
   1006     0.10,                    !- Back Side Infrared Hemispherical Emissivity
   1007     0.9;                     !- Conductivity {W/m-K}
   1008 
   1009 ! ID 451
   1010 WindowMaterial:Glazing,
   1011     LoE TINT 6MM,            !- Name
   1012     SpectralAverage,         !- Optical Data Type
   1013     ,                        !- Window Glass Spectral Data Set Name
   1014     0.006,                   !- Thickness {m}
   1015     0.360,                   !- Solar Transmittance at Normal Incidence
   1016     0.093,                   !- Front Side Solar Reflectance at Normal Incidence
   1017     0.200,                   !- Back Side Solar Reflectance at Normal Incidence
   1018     0.500,                   !- Visible Transmittance at Normal Incidence
   1019     0.035,                   !- Front Side Visible Reflectance at Normal Incidence
   1020     0.054,                   !- Back Side Visible Reflectance at Normal Incidence
   1021     0.0,                     !- Infrared Transmittance at Normal Incidence
   1022     0.84,                    !- Front Side Infrared Hemispherical Emissivity
   1023     0.10,                    !- Back Side Infrared Hemispherical Emissivity
   1024     0.9;                     !- Conductivity {W/m-K}
   1025 
   1026 ! ID 232
   1027 WindowMaterial:Glazing,
   1028     REF B TINT HI 6MM,       !- Name
   1029     SpectralAverage,         !- Optical Data Type
   1030     ,                        !- Window Glass Spectral Data Set Name
   1031     0.006,                   !- Thickness {m}
   1032     0.150,                   !- Solar Transmittance at Normal Incidence
   1033     0.090,                   !- Front Side Solar Reflectance at Normal Incidence
   1034     0.330,                   !- Back Side Solar Reflectance at Normal Incidence
   1035     0.180,                   !- Visible Transmittance at Normal Incidence
   1036     0.080,                   !- Front Side Visible Reflectance at Normal Incidence
   1037     0.280,                   !- Back Side Visible Reflectance at Normal Incidence
   1038     0.0,                     !- Infrared Transmittance at Normal Incidence
   1039     0.84,                    !- Front Side Infrared Hemispherical Emissivity
   1040     0.60,                    !- Back Side Infrared Hemispherical Emissivity
   1041     0.9;                     !- Conductivity {W/m-K}
   1042 
   1043 ! ID 241
   1044 WindowMaterial:Glazing,
   1045     REF C CLEAR MID 6MM,     !- Name
   1046     SpectralAverage,         !- Optical Data Type
   1047     ,                        !- Window Glass Spectral Data Set Name
   1048     0.006,                   !- Thickness {m}
   1049     0.170,                   !- Solar Transmittance at Normal Incidence
   1050     0.200,                   !- Front Side Solar Reflectance at Normal Incidence
   1051     0.420,                   !- Back Side Solar Reflectance at Normal Incidence
   1052     0.190,                   !- Visible Transmittance at Normal Incidence
   1053     0.210,                   !- Front Side Visible Reflectance at Normal Incidence
   1054     0.380,                   !- Back Side Visible Reflectance at Normal Incidence
   1055     0.0,                     !- Infrared Transmittance at Normal Incidence
   1056     0.84,                    !- Front Side Infrared Hemispherical Emissivity
   1057     0.51,                    !- Back Side Infrared Hemispherical Emissivity
   1058     0.9;                     !- Conductivity {W/m-K}
   1059 
   1060 ! ID 270
   1061 WindowMaterial:Glazing,
   1062     REF D TINT 6MM,          !- Name
   1063     SpectralAverage,         !- Optical Data Type
   1064     ,                        !- Window Glass Spectral Data Set Name
   1065     0.006,                   !- Thickness {m}
   1066     0.300,                   !- Solar Transmittance at Normal Incidence
   1067     0.140,                   !- Front Side Solar Reflectance at Normal Incidence
   1068     0.360,                   !- Back Side Solar Reflectance at Normal Incidence
   1069     0.250,                   !- Visible Transmittance at Normal Incidence
   1070     0.180,                   !- Front Side Visible Reflectance at Normal Incidence
   1071     0.450,                   !- Back Side Visible Reflectance at Normal Incidence
   1072     0.0,                     !- Infrared Transmittance at Normal Incidence
   1073     0.84,                    !- Front Side Infrared Hemispherical Emissivity
   1074     0.82,                    !- Back Side Infrared Hemispherical Emissivity
   1075     0.9;                     !- Conductivity {W/m-K}
   1076 
   1077 ! ID 601
   1078 WindowMaterial:Glazing,
   1079     COATED POLY-77,          !- Name
   1080     SpectralAverage,         !- Optical Data Type
   1081     ,                        !- Window Glass Spectral Data Set Name
   1082     0.00051,                 !- Thickness {m}
   1083     0.504,                   !- Solar Transmittance at Normal Incidence
   1084     0.402,                   !- Front Side Solar Reflectance at Normal Incidence
   1085     0.398,                   !- Back Side Solar Reflectance at Normal Incidence
   1086     0.766,                   !- Visible Transmittance at Normal Incidence
   1087     0.147,                   !- Front Side Visible Reflectance at Normal Incidence
   1088     0.167,                   !- Back Side Visible Reflectance at Normal Incidence
   1089     0.0,                     !- Infrared Transmittance at Normal Incidence
   1090     0.075,                   !- Front Side Infrared Hemispherical Emissivity
   1091     0.720,                   !- Back Side Infrared Hemispherical Emissivity
   1092     0.14;                    !- Conductivity {W/m-K}
   1093 
   1094 ! ID 550
   1095 WindowMaterial:Glazing,
   1096     LoE SPEC SEL TINT 6MM,   !- Name
   1097     SpectralAverage,         !- Optical Data Type
   1098     ,                        !- Window Glass Spectral Data Set Name
   1099     0.006,                   !- Thickness {m}
   1100     0.260,                   !- Solar Transmittance at Normal Incidence
   1101     0.140,                   !- Front Side Solar Reflectance at Normal Incidence
   1102     0.410,                   !- Back Side Solar Reflectance at Normal Incidence
   1103     0.460,                   !- Visible Transmittance at Normal Incidence
   1104     0.060,                   !- Front Side Visible Reflectance at Normal Incidence
   1105     0.040,                   !- Back Side Visible Reflectance at Normal Incidence
   1106     0.0,                     !- Infrared Transmittance at Normal Incidence
   1107     0.84,                    !- Front Side Infrared Hemispherical Emissivity
   1108     0.03,                    !- Back Side Infrared Hemispherical Emissivity
   1109     0.9;                     !- Conductivity {W/m-K}
   1110 
   1111 ! ID 351
   1112 WindowMaterial:Glazing,
   1113     PYR B CLEAR 6MM,         !- Name
   1114     SpectralAverage,         !- Optical Data Type
   1115     ,                        !- Window Glass Spectral Data Set Name
   1116     0.006,                   !- Thickness {m}
   1117     0.680,                   !- Solar Transmittance at Normal Incidence
   1118     0.090,                   !- Front Side Solar Reflectance at Normal Incidence
   1119     0.100,                   !- Back Side Solar Reflectance at Normal Incidence
   1120     0.810,                   !- Visible Transmittance at Normal Incidence
   1121     0.110,                   !- Front Side Visible Reflectance at Normal Incidence
   1122     0.120,                   !- Back Side Visible Reflectance at Normal Incidence
   1123     0.0,                     !- Infrared Transmittance at Normal Incidence
   1124     0.84,                    !- Front Side Infrared Hemispherical Emissivity
   1125     0.20,                    !- Back Side Infrared Hemispherical Emissivity
   1126     0.9;                     !- Conductivity {W/m-K}
   1127 
   1128 ! ID 2
   1129 WindowMaterial:Glazing,
   1130     CLEAR 3MM,               !- Name
   1131     SpectralAverage,         !- Optical Data Type
   1132     ,                        !- Window Glass Spectral Data Set Name
   1133     0.003,                   !- Thickness {m}
   1134     0.837,                   !- Solar Transmittance at Normal Incidence
   1135     0.075,                   !- Front Side Solar Reflectance at Normal Incidence
   1136     0.075,                   !- Back Side Solar Reflectance at Normal Incidence
   1137     0.898,                   !- Visible Transmittance at Normal Incidence
   1138     0.081,                   !- Front Side Visible Reflectance at Normal Incidence
   1139     0.081,                   !- Back Side Visible Reflectance at Normal Incidence
   1140     0.0,                     !- Infrared Transmittance at Normal Incidence
   1141     0.84,                    !- Front Side Infrared Hemispherical Emissivity
   1142     0.84,                    !- Back Side Infrared Hemispherical Emissivity
   1143     0.9;                     !- Conductivity {W/m-K}
   1144 
   1145 ! ID 220
   1146 WindowMaterial:Glazing,
   1147     REF B CLEAR LO 6MM,      !- Name
   1148     SpectralAverage,         !- Optical Data Type
   1149     ,                        !- Window Glass Spectral Data Set Name
   1150     0.006,                   !- Thickness {m}
   1151     0.150,                   !- Solar Transmittance at Normal Incidence
   1152     0.220,                   !- Front Side Solar Reflectance at Normal Incidence
   1153     0.380,                   !- Back Side Solar Reflectance at Normal Incidence
   1154     0.200,                   !- Visible Transmittance at Normal Incidence
   1155     0.230,                   !- Front Side Visible Reflectance at Normal Incidence
   1156     0.330,                   !- Back Side Visible Reflectance at Normal Incidence
   1157     0.0,                     !- Infrared Transmittance at Normal Incidence
   1158     0.84,                    !- Front Side Infrared Hemispherical Emissivity
   1159     0.58,                    !- Back Side Infrared Hemispherical Emissivity
   1160     0.9;                     !- Conductivity {W/m-K}
   1161 
   1162 ! ID 200
   1163 WindowMaterial:Glazing,
   1164     REF A CLEAR LO 6MM,      !- Name
   1165     SpectralAverage,         !- Optical Data Type
   1166     ,                        !- Window Glass Spectral Data Set Name
   1167     0.006,                   !- Thickness {m}
   1168     0.066,                   !- Solar Transmittance at Normal Incidence
   1169     0.341,                   !- Front Side Solar Reflectance at Normal Incidence
   1170     0.493,                   !- Back Side Solar Reflectance at Normal Incidence
   1171     0.080,                   !- Visible Transmittance at Normal Incidence
   1172     0.410,                   !- Front Side Visible Reflectance at Normal Incidence
   1173     0.370,                   !- Back Side Visible Reflectance at Normal Incidence
   1174     0.0,                     !- Infrared Transmittance at Normal Incidence
   1175     0.84,                    !- Front Side Infrared Hemispherical Emissivity
   1176     0.40,                    !- Back Side Infrared Hemispherical Emissivity
   1177     0.9;                     !- Conductivity {W/m-K}
   1178 
   1179 ! ID 11
   1180 WindowMaterial:Glazing,
   1181     GREEN 3MM,               !- Name
   1182     SpectralAverage,         !- Optical Data Type
   1183     ,                        !- Window Glass Spectral Data Set Name
   1184     0.003,                   !- Thickness {m}
   1185     0.635,                   !- Solar Transmittance at Normal Incidence
   1186     0.063,                   !- Front Side Solar Reflectance at Normal Incidence
   1187     0.063,                   !- Back Side Solar Reflectance at Normal Incidence
   1188     0.822,                   !- Visible Transmittance at Normal Incidence
   1189     0.075,                   !- Front Side Visible Reflectance at Normal Incidence
   1190     0.075,                   !- Back Side Visible Reflectance at Normal Incidence
   1191     0.0,                     !- Infrared Transmittance at Normal Incidence
   1192     0.84,                    !- Front Side Infrared Hemispherical Emissivity
   1193     0.84,                    !- Back Side Infrared Hemispherical Emissivity
   1194     0.9;                     !- Conductivity {W/m-K}
   1195 
   1196 ! ID 705
   1197 WindowMaterial:Glazing,
   1198     ECABS-2 COLORED 6MM,     !- Name
   1199     SpectralAverage,         !- Optical Data Type
   1200     ,                        !- Window Glass Spectral Data Set Name
   1201     0.006,                   !- Thickness {m}
   1202     0.111,                   !- Solar Transmittance at Normal Incidence
   1203     0.179,                   !- Front Side Solar Reflectance at Normal Incidence
   1204     0.179,                   !- Back Side Solar Reflectance at Normal Incidence
   1205     0.128,                   !- Visible Transmittance at Normal Incidence
   1206     0.081,                   !- Front Side Visible Reflectance at Normal Incidence
   1207     0.081,                   !- Back Side Visible Reflectance at Normal Incidence
   1208     0.0,                     !- Infrared Transmittance at Normal Incidence
   1209     0.84,                    !- Front Side Infrared Hemispherical Emissivity
   1210     0.10,                    !- Back Side Infrared Hemispherical Emissivity
   1211     0.9;                     !- Conductivity {W/m-K}
   1212 
   1213 ! ID 603
   1214 WindowMaterial:Glazing,
   1215     COATED POLY-55,          !- Name
   1216     SpectralAverage,         !- Optical Data Type
   1217     ,                        !- Window Glass Spectral Data Set Name
   1218     0.00051,                 !- Thickness {m}
   1219     0.320,                   !- Solar Transmittance at Normal Incidence
   1220     0.582,                   !- Front Side Solar Reflectance at Normal Incidence
   1221     0.593,                   !- Back Side Solar Reflectance at Normal Incidence
   1222     0.551,                   !- Visible Transmittance at Normal Incidence
   1223     0.336,                   !- Front Side Visible Reflectance at Normal Incidence
   1224     0.375,                   !- Back Side Visible Reflectance at Normal Incidence
   1225     0.0,                     !- Infrared Transmittance at Normal Incidence
   1226     0.046,                   !- Front Side Infrared Hemispherical Emissivity
   1227     0.720,                   !- Back Side Infrared Hemispherical Emissivity
   1228     0.14;                    !- Conductivity {W/m-K}
   1229 
   1230 ! ID 707
   1231 WindowMaterial:Glazing,
   1232     ECREF-2 COLORED 6MM,     !- Name
   1233     SpectralAverage,         !- Optical Data Type
   1234     ,                        !- Window Glass Spectral Data Set Name
   1235     0.006,                   !- Thickness {m}
   1236     0.099,                   !- Solar Transmittance at Normal Incidence
   1237     0.219,                   !- Front Side Solar Reflectance at Normal Incidence
   1238     0.219,                   !- Back Side Solar Reflectance at Normal Incidence
   1239     0.155,                   !- Visible Transmittance at Normal Incidence
   1240     0.073,                   !- Front Side Visible Reflectance at Normal Incidence
   1241     0.073,                   !- Back Side Visible Reflectance at Normal Incidence
   1242     0.0,                     !- Infrared Transmittance at Normal Incidence
   1243     0.84,                    !- Front Side Infrared Hemispherical Emissivity
   1244     0.10,                    !- Back Side Infrared Hemispherical Emissivity
   1245     0.9;                     !- Conductivity {W/m-K}
   1246 
   1247 !
   1248 WindowMaterial:Glazing,
   1249     LoE SPEC SEL CLEAR 6MM Rev,  !- Name
   1250     SpectralAverage,         !- Optical Data Type
   1251     ,                        !- Window Glass Spectral Data Set Name
   1252     0.006,                   !- Thickness {m}
   1253     0.430,                   !- Solar Transmittance at Normal Incidence
   1254     0.420,                   !- Front Side Solar Reflectance at Normal Incidence
   1255     0.300,                   !- Back Side Solar Reflectance at Normal Incidence
   1256     0.770,                   !- Visible Transmittance at Normal Incidence
   1257     0.060,                   !- Front Side Visible Reflectance at Normal Incidence
   1258     0.070,                   !- Back Side Visible Reflectance at Normal Incidence
   1259     0.0,                     !- Infrared Transmittance at Normal Incidence
   1260     0.03,                    !- Front Side Infrared Hemispherical Emissivity
   1261     0.84,                    !- Back Side Infrared Hemispherical Emissivity
   1262     0.9;                     !- Conductivity {W/m-K}
   1263 
   1264 ! ID 6
   1265 WindowMaterial:Glazing,
   1266     BRONZE 6MM,              !- Name
   1267     SpectralAverage,         !- Optical Data Type
   1268     ,                        !- Window Glass Spectral Data Set Name
   1269     0.006,                   !- Thickness {m}
   1270     0.482,                   !- Solar Transmittance at Normal Incidence
   1271     0.054,                   !- Front Side Solar Reflectance at Normal Incidence
   1272     0.054,                   !- Back Side Solar Reflectance at Normal Incidence
   1273     0.534,                   !- Visible Transmittance at Normal Incidence
   1274     0.057,                   !- Front Side Visible Reflectance at Normal Incidence
   1275     0.057,                   !- Back Side Visible Reflectance at Normal Incidence
   1276     0.0,                     !- Infrared Transmittance at Normal Incidence
   1277     0.84,                    !- Front Side Infrared Hemispherical Emissivity
   1278     0.84,                    !- Back Side Infrared Hemispherical Emissivity
   1279     0.9;                     !- Conductivity {W/m-K}
   1280 
   1281 ! ID 211
   1282 WindowMaterial:Glazing,
   1283     REF A TINT MID 6MM,      !- Name
   1284     SpectralAverage,         !- Optical Data Type
   1285     ,                        !- Window Glass Spectral Data Set Name
   1286     0.006,                   !- Thickness {m}
   1287     0.060,                   !- Solar Transmittance at Normal Incidence
   1288     0.130,                   !- Front Side Solar Reflectance at Normal Incidence
   1289     0.420,                   !- Back Side Solar Reflectance at Normal Incidence
   1290     0.090,                   !- Visible Transmittance at Normal Incidence
   1291     0.140,                   !- Front Side Visible Reflectance at Normal Incidence
   1292     0.350,                   !- Back Side Visible Reflectance at Normal Incidence
   1293     0.0,                     !- Infrared Transmittance at Normal Incidence
   1294     0.84,                    !- Front Side Infrared Hemispherical Emissivity
   1295     0.47,                    !- Back Side Infrared Hemispherical Emissivity
   1296     0.9;                     !- Conductivity {W/m-K}
   1297 
   1298 WindowMaterial:Glazing,
   1299     Theoretical Glass 297,   !- Name
   1300     SpectralAverage,         !- Optical Data Type
   1301     ,                        !- Window Glass Spectral Data Set Name
   1302     0.003,                   !- Thickness {m}
   1303     0.375039,                !- Solar Transmittance at Normal Incidence
   1304     0.574961,                !- Front Side Solar Reflectance at Normal Incidence
   1305     0.574961,                !- Back Side Solar Reflectance at Normal Incidence
   1306     0.529698,                !- Visible Transmittance at Normal Incidence
   1307     0.420302,                !- Front Side Visible Reflectance at Normal Incidence
   1308     0.420302,                !- Back Side Visible Reflectance at Normal Incidence
   1309     0,                       !- Infrared Transmittance at Normal Incidence
   1310     0.9,                     !- Front Side Infrared Hemispherical Emissivity
   1311     0.9,                     !- Back Side Infrared Hemispherical Emissivity
   1312     0.0103561;               !- Conductivity {W/m-K}
   1313 
   1314 WindowMaterial:Glazing,
   1315     Theoretical Glass 347,   !- Name
   1316     SpectralAverage,         !- Optical Data Type
   1317     ,                        !- Window Glass Spectral Data Set Name
   1318     0.003,                   !- Thickness {m}
   1319     0.315861,                !- Solar Transmittance at Normal Incidence
   1320     0.634139,                !- Front Side Solar Reflectance at Normal Incidence
   1321     0.634139,                !- Back Side Solar Reflectance at Normal Incidence
   1322     0.479911,                !- Visible Transmittance at Normal Incidence
   1323     0.470089,                !- Front Side Visible Reflectance at Normal Incidence
   1324     0.470089,                !- Back Side Visible Reflectance at Normal Incidence
   1325     0,                       !- Infrared Transmittance at Normal Incidence
   1326     0.9,                     !- Front Side Infrared Hemispherical Emissivity
   1327     0.9,                     !- Back Side Infrared Hemispherical Emissivity
   1328     0.010358;                !- Conductivity {W/m-K}
   1329 
   1330 WindowMaterial:Gas,
   1331     AIR 6MM,                 !- Name
   1332     Air,                     !- Gas Type
   1333     0.0063;                  !- Thickness {m}
   1334 
   1335 WindowMaterial:Gas,
   1336     AIR 13MM,                !- Name
   1337     Air,                     !- Gas Type
   1338     0.0127;                  !- Thickness {m}
   1339 
   1340 WindowMaterial:Gas,
   1341     ARGON 13MM,              !- Name
   1342     Argon,                   !- Gas Type
   1343     0.0127;                  !- Thickness {m}
   1344 
   1345 !    Sgl Green 6mm,           !- Name
   1346 Construction,
   1347     Window_U_1.22_SHGC_0.61, !- Name
   1348     GREEN 6MM;               !- Outside Layer
   1349 
   1350 !    Sgl Ref-B-H Clr 6mm,     !- Name
   1351 Construction,
   1352     Window_U_1.22_SHGC_0.39, !- Name
   1353     REF B CLEAR HI 6MM;      !- Outside Layer
   1354 
   1355 !    Sgl Ref-C-H Clr 6mm,     !- Name
   1356 Construction,
   1357     Window_U_1.22_SHGC_0.34, !- Name
   1358     REF C CLEAR HI 6MM;      !- Outside Layer
   1359 
   1360 !    Sgl Elec Ref Colored 6mm,!- Name
   1361 Construction,
   1362     Window_U_1.22_SHGC_0.25, !- Name
   1363     ECREF-1 COLORED 6MM;     !- Outside Layer
   1364 
   1365 !    Sgl Ref-B-M Tint 6mm,    !- Name
   1366 Construction,
   1367     Window_U_0.72_SHGC_0.25, !- Name
   1368     REF B TINT MID 6MM;      !- Outside Layer
   1369 
   1370 !    Dbl Ref-D Clr 6mm/6mm Air,  !- Name
   1371 Construction,
   1372     Window_U_0.62_SHGC_0.39, !- Name
   1373     REF D CLEAR 6MM,         !- Outside Layer
   1374     AIR 6MM,                 !- Layer 2
   1375     CLEAR 6MM;               !- Layer 3
   1376 
   1377 !    Dbl Ref-D Clr 6mm/6mm Air,  !- Name
   1378 Construction,
   1379     Window_U_0.57_SHGC_0.39, !- Name
   1380     REF D CLEAR 6MM,         !- Outside Layer
   1381     AIR 6MM,                 !- Layer 2
   1382     CLEAR 6MM;               !- Layer 3
   1383 
   1384 !    Dbl Ref-C-H Clr 6mm/6mm Air,  !- Name
   1385 Construction,
   1386     Window_U_0.65_SHGC_0.25, !- Name
   1387     REF C CLEAR HI 6MM,      !- Outside Layer
   1388     AIR 6MM,                 !- Layer 2
   1389     CLEAR 6MM;               !- Layer 3
   1390 
   1391 !    Dbl Ref-C-H Clr 6mm/6mm Air,  !- Name
   1392 Construction,
   1393     Window_U_0.62_SHGC_0.25, !- Name
   1394     REF C CLEAR HI 6MM,      !- Outside Layer
   1395     AIR 6MM,                 !- Layer 2
   1396     CLEAR 6MM;               !- Layer 3
   1397 
   1398 !    Dbl Ref-C-H Clr 6mm/6mm Air,  !- Name
   1399 Construction,
   1400     Window_U_0.57_SHGC_0.25, !- Name
   1401     REF C CLEAR HI 6MM,      !- Outside Layer
   1402     AIR 6MM,                 !- Layer 2
   1403     CLEAR 6MM;               !- Layer 3
   1404 
   1405 !    Dbl Blue 6mm/6mm Air,    !- Name
   1406 Construction,
   1407     Window_U_0.62_SHGC_0.49, !- Name
   1408     BLUE 6MM,                !- Outside Layer
   1409     AIR 6MM,                 !- Layer 2
   1410     CLEAR 6MM;               !- Layer 3
   1411 
   1412 !    Dbl Blue 6mm/6mm Air,    !- Name
   1413 Construction,
   1414     Window_U_0.57_SHGC_0.49, !- Name
   1415     BLUE 6MM,                !- Outside Layer
   1416     AIR 6MM,                 !- Layer 2
   1417     CLEAR 6MM;               !- Layer 3
   1418 
   1419 !    Dbl Ref-D Clr 6mm/13mm Air,  !- Name
   1420 Construction,
   1421     Window_U_0.52_SHGC_0.40, !- Name
   1422     REF D CLEAR 6MM,         !- Outside Layer
   1423     AIR 13MM,                !- Layer 2
   1424     CLEAR 6MM;               !- Layer 3
   1425 
   1426 !    Dbl Ref-D Clr 6mm/13mm Air,  !- Name
   1427 Construction,
   1428     Window_U_0.48_SHGC_0.40, !- Name
   1429     REF D CLEAR 6MM,         !- Outside Layer
   1430     AIR 13MM,                !- Layer 2
   1431     CLEAR 6MM;               !- Layer 3
   1432 
   1433 !    Dbl Ref-D Clr 6mm/13mm Arg,  !- Name
   1434 Construction,
   1435     Window_U_0.42_SHGC_0.45, !- Name
   1436     REF D CLEAR 6MM,         !- Outside Layer
   1437     ARGON 13MM,              !- Layer 2
   1438     CLEAR 6MM;               !- Layer 3
   1439 
   1440 !    Dbl Grey 6mm/13mm Air,   !- Name
   1441 Construction,
   1442     Window_U_0.46_SHGC_0.45, !- Name
   1443     GREY 6MM,                !- Outside Layer
   1444     AIR 13MM,                !- Layer 2
   1445     CLEAR 6MM;               !- Layer 3
   1446 
   1447 !    Dbl LoE (e2=.1) Tint 6mm/6mm Air,  !- Name
   1448 Construction,
   1449     Window_U_0.42_SHGC_0.40, !- Name
   1450     LoE TINT 6MM,            !- Outside Layer
   1451     AIR 6MM,                 !- Layer 2
   1452     CLEAR 6MM;               !- Layer 3
   1453 
   1454 !    Dbl Ref-B-H Clr 6mm/13mm Air,  !- Name
   1455 Construction,
   1456     Window_U_0.43_SHGC_0.26, !- Name
   1457     REF B CLEAR HI 6MM,      !- Outside Layer
   1458     AIR 13MM,                !- Layer 2
   1459     CLEAR 6MM;               !- Layer 3
   1460 
   1461 !    Dbl Ref-B-H Clr 6mm/13mm Air,  !- Name
   1462 Construction,
   1463     Window_U_0.44_SHGC_0.26, !- Name
   1464     REF B CLEAR HI 6MM,      !- Outside Layer
   1465     AIR 13MM,                !- Layer 2
   1466     CLEAR 6MM;               !- Layer 3
   1467 
   1468 !    Dbl LoE (e2=.1) Tint 6mm/6mm Air,  !- Name
   1469 Construction,
   1470     Window_U_0.42_SHGC_0.35, !- Name
   1471     LoE TINT 6MM,            !- Outside Layer
   1472     AIR 6MM,                 !- Layer 2
   1473     CLEAR 6MM;               !- Layer 3
   1474 
   1475 !    Dbl LoE (e2=.1) Tint 6mm/13mm Air,  !- Name
   1476 Construction,
   1477     Window_U_0.33_SHGC_0.40, !- Name
   1478     LoE TINT 6MM,            !- Outside Layer
   1479     AIR 13MM,                !- Layer 2
   1480     CLEAR 6MM;               !- Layer 3
   1481 
   1482 Construction,
   1483     Window_U_0.34_SHGC_0.40, !- Name
   1484     LoE TINT 6MM,            !- Outside Layer
   1485     AIR 13MM,                !- Layer 2
   1486     CLEAR 6MM;               !- Layer 3
   1487 
   1488 !    Dbl LoE (e2=.1) Tint 6mm/13mm Air,  !- Name
   1489 Construction,
   1490     Window_U_0.35_SHGC_0.35, !- Name
   1491     LoE TINT 6MM,            !- Outside Layer
   1492     AIR 13MM,                !- Layer 2
   1493     CLEAR 6MM;               !- Layer 3
   1494 
   1495 !    Dbl Ref-D Tint 6mm/6mm Air,  !- Name
   1496 Construction,
   1497     Window_U_0.55_SHGC_0.31, !- Name
   1498     REF D TINT 6MM,          !- Outside Layer
   1499     AIR 6MM,                 !- Layer 2
   1500     CLEAR 6MM;               !- Layer 3
   1501 
   1502 !    Dbl LoE Spec Sel Tint 6mm/6mm Air,  !- Name
   1503 Construction,
   1504     Window_U_0.43_SHGC_0.29, !- Name
[...]
   9963     CM DSOA Perimeter_top_ZN_2,  !- Design Specification Outdoor Air Object Name 3
   9964     CM DSZAD Perimeter_top_ZN_2,  !- Design Specification Zone Air Distribution Object Name 3
   9965     Perimeter_top_ZN_3,      !- Zone 4 Name
   9966     CM DSOA Perimeter_top_ZN_3,  !- Design Specification Outdoor Air Object Name 4
   9967     CM DSZAD Perimeter_top_ZN_3,  !- Design Specification Zone Air Distribution Object Name 4
   9968     Perimeter_top_ZN_4,      !- Zone 5 Name
   9969     CM DSOA Perimeter_top_ZN_4,  !- Design Specification Outdoor Air Object Name 5
   9970     CM DSZAD Perimeter_top_ZN_4;  !- Design Specification Zone Air Distribution Object Name 5
   9971 
   9972 DesignSpecification:ZoneAirDistribution,
   9973     CM DSZAD Core_top,       !- Name
   9974     1,                       !- Zone Air Distribution Effectiveness in Cooling Mode {dimensionless}
   9975     1;                       !- Zone Air Distribution Effectiveness in Heating Mode {dimensionless}
   9976 
   9977 DesignSpecification:ZoneAirDistribution,
   9978     CM DSZAD Perimeter_top_ZN_1,  !- Name
   9979     1,                       !- Zone Air Distribution Effectiveness in Cooling Mode {dimensionless}
   9980     1;                       !- Zone Air Distribution Effectiveness in Heating Mode {dimensionless}
   9981 
   9982 DesignSpecification:ZoneAirDistribution,
   9983     CM DSZAD Perimeter_top_ZN_2,  !- Name
   9984     1,                       !- Zone Air Distribution Effectiveness in Cooling Mode {dimensionless}
   9985     1;                       !- Zone Air Distribution Effectiveness in Heating Mode {dimensionless}
   9986 
   9987 DesignSpecification:ZoneAirDistribution,
   9988     CM DSZAD Perimeter_top_ZN_3,  !- Name
   9989     1,                       !- Zone Air Distribution Effectiveness in Cooling Mode {dimensionless}
   9990     1;                       !- Zone Air Distribution Effectiveness in Heating Mode {dimensionless}
   9991 
   9992 DesignSpecification:ZoneAirDistribution,
   9993     CM DSZAD Perimeter_top_ZN_4,  !- Name
   9994     1,                       !- Zone Air Distribution Effectiveness in Cooling Mode {dimensionless}
   9995     1;                       !- Zone Air Distribution Effectiveness in Heating Mode {dimensionless}
   9996 
   9997 DesignSpecification:OutdoorAir,
   9998     CM DSOA Core_top,        !- Name
   9999     Sum,                     !- Outdoor Air Method
  10000     0.00000001,              !- Outdoor Air Flow per Person {m3/s-person}
  10001     0.000431773;             !- Outdoor Air Flow per Zone Floor Area {m3/s-m2}
  10002 
  10003 DesignSpecification:OutdoorAir,
  10004     CM DSOA Perimeter_top_ZN_1,  !- Name
  10005     Sum,                     !- Outdoor Air Method
  10006     0.00000001,              !- Outdoor Air Flow per Person {m3/s-person}
  10007     0.000431773;             !- Outdoor Air Flow per Zone Floor Area {m3/s-m2}
  10008 
  10009 DesignSpecification:OutdoorAir,
  10010     CM DSOA Perimeter_top_ZN_2,  !- Name
  10011     Sum,                     !- Outdoor Air Method
  10012     0.00000001,              !- Outdoor Air Flow per Person {m3/s-person}
  10013     0.000431773;             !- Outdoor Air Flow per Zone Floor Area {m3/s-m2}
  10014 
  10015 DesignSpecification:OutdoorAir,
  10016     CM DSOA Perimeter_top_ZN_3,  !- Name
  10017     Sum,                     !- Outdoor Air Method
  10018     0.00000001,              !- Outdoor Air Flow per Person {m3/s-person}
  10019     0.000431773;             !- Outdoor Air Flow per Zone Floor Area {m3/s-m2}
  10020 
  10021 DesignSpecification:OutdoorAir,
  10022     CM DSOA Perimeter_top_ZN_4,  !- Name
  10023     Sum,                     !- Outdoor Air Method
  10024     0.00000001,              !- Outdoor Air Flow per Person {m3/s-person}
  10025     0.000431773;             !- Outdoor Air Flow per Zone Floor Area {m3/s-m2}
  10026 
  10027 Controller:MechanicalVentilation,
  10028     PACU_VAV_MID_DCV,        !- Name
  10029     ALWAYS_ON,               !- Availability Schedule Name
  10030     Yes,                     !- Demand Controlled Ventilation
  10031     VentilationRateProcedure,!- System Outdoor Air Method
  10032     ,                        !- Zone Maximum Outdoor Air Fraction {dimensionless}
  10033     Core_mid,                !- Zone 1 Name
  10034     CM DSOA Core_mid,        !- Design Specification Outdoor Air Object Name 1
  10035     CM DSZAD Core_mid,       !- Design Specification Zone Air Distribution Object Name 1
  10036     Perimeter_mid_ZN_1,      !- Zone 2 Name
  10037     CM DSOA Perimeter_mid_ZN_1,  !- Design Specification Outdoor Air Object Name 2
  10038     CM DSZAD Perimeter_mid_ZN_1,  !- Design Specification Zone Air Distribution Object Name 2
  10039     Perimeter_mid_ZN_2,      !- Zone 3 Name
  10040     CM DSOA Perimeter_mid_ZN_2,  !- Design Specification Outdoor Air Object Name 3
  10041     CM DSZAD Perimeter_mid_ZN_2,  !- Design Specification Zone Air Distribution Object Name 3
  10042     Perimeter_mid_ZN_3,      !- Zone 4 Name
  10043     CM DSOA Perimeter_mid_ZN_3,  !- Design Specification Outdoor Air Object Name 4
  10044     CM DSZAD Perimeter_mid_ZN_3,  !- Design Specification Zone Air Distribution Object Name 4
  10045     Perimeter_mid_ZN_4,      !- Zone 5 Name
  10046     CM DSOA Perimeter_mid_ZN_4,  !- Design Specification Outdoor Air Object Name 5
  10047     CM DSZAD Perimeter_mid_ZN_4;  !- Design Specification Zone Air Distribution Object Name 5
  10048 
  10049 DesignSpecification:ZoneAirDistribution,
  10050     CM DSZAD Core_mid,       !- Name
  10051     1,                       !- Zone Air Distribution Effectiveness in Cooling Mode {dimensionless}
  10052     1;                       !- Zone Air Distribution Effectiveness in Heating Mode {dimensionless}
  10053 
  10054 DesignSpecification:ZoneAirDistribution,
  10055     CM DSZAD Perimeter_mid_ZN_1,  !- Name
  10056     1,                       !- Zone Air Distribution Effectiveness in Cooling Mode {dimensionless}
  10057     1;                       !- Zone Air Distribution Effectiveness in Heating Mode {dimensionless}
  10058 
  10059 DesignSpecification:ZoneAirDistribution,
  10060     CM DSZAD Perimeter_mid_ZN_2,  !- Name
  10061     1,                       !- Zone Air Distribution Effectiveness in Cooling Mode {dimensionless}
  10062     1;                       !- Zone Air Distribution Effectiveness in Heating Mode {dimensionless}
  10063 
  10064 DesignSpecification:ZoneAirDistribution,
  10065     CM DSZAD Perimeter_mid_ZN_3,  !- Name
  10066     1,                       !- Zone Air Distribution Effectiveness in Cooling Mode {dimensionless}
  10067     1;                       !- Zone Air Distribution Effectiveness in Heating Mode {dimensionless}
  10068 
  10069 DesignSpecification:ZoneAirDistribution,
  10070     CM DSZAD Perimeter_mid_ZN_4,  !- Name
  10071     1,                       !- Zone Air Distribution Effectiveness in Cooling Mode {dimensionless}
  10072     1;                       !- Zone Air Distribution Effectiveness in Heating Mode {dimensionless}
  10073 
  10074 DesignSpecification:OutdoorAir,
  10075     CM DSOA Core_mid,        !- Name
  10076     Sum,                     !- Outdoor Air Method
  10077     0.00000001,              !- Outdoor Air Flow per Person {m3/s-person}
  10078     0.000431773;             !- Outdoor Air Flow per Zone Floor Area {m3/s-m2}
  10079 
  10080 DesignSpecification:OutdoorAir,
  10081     CM DSOA Perimeter_mid_ZN_1,  !- Name
  10082     Sum,                     !- Outdoor Air Method
  10083     0.00000001,              !- Outdoor Air Flow per Person {m3/s-person}
  10084     0.000431773;             !- Outdoor Air Flow per Zone Floor Area {m3/s-m2}
  10085 
  10086 DesignSpecification:OutdoorAir,
  10087     CM DSOA Perimeter_mid_ZN_2,  !- Name
  10088     Sum,                     !- Outdoor Air Method
  10089     0.00000001,              !- Outdoor Air Flow per Person {m3/s-person}
  10090     0.000431773;             !- Outdoor Air Flow per Zone Floor Area {m3/s-m2}
  10091 
  10092 DesignSpecification:OutdoorAir,
  10093     CM DSOA Perimeter_mid_ZN_3,  !- Name
  10094     Sum,                     !- Outdoor Air Method
  10095     0.00000001,              !- Outdoor Air Flow per Person {m3/s-person}
  10096     0.000431773;             !- Outdoor Air Flow per Zone Floor Area {m3/s-m2}
  10097 
  10098 DesignSpecification:OutdoorAir,
  10099     CM DSOA Perimeter_mid_ZN_4,  !- Name
  10100     Sum,                     !- Outdoor Air Method
  10101     0.00000001,              !- Outdoor Air Flow per Person {m3/s-person}
  10102     0.000431773;             !- Outdoor Air Flow per Zone Floor Area {m3/s-m2}
  10103 
  10104 EnergyManagementSystem:Sensor,
  10105     Facility_Int_LTG,        !- Name
  10106     ,                        !- Output:Variable or Output:Meter Index Key Name
  10107     InteriorLights:Electricity;  !- Output:Variable or Output:Meter Name
  10108 
  10109 EnergyManagementSystem:GlobalVariable,
  10110     Wired_LTG;               !- Erl Variable 1 Name
  10111 
  10112 EnergyManagementSystem:Program,
  10113     Transformer_Load_Prog,   !- Name
  10114     SET Wired_LTG = Facility_Int_LTG*0.0281;  !- Program Line 1
  10115 
  10116 EnergyManagementSystem:ProgramCallingManager,
  10117     Transformer_Load_Prog_Manager,  !- Name
  10118     AfterPredictorAfterHVACManagers,  !- EnergyPlus Model Calling Point
  10119     Transformer_Load_Prog;   !- Program Name 1
  10120 
  10121 EnergyManagementSystem:OutputVariable,
  10122     Wired_LTG,               !- Name
  10123     Wired_LTG,               !- EMS Variable Name
  10124     Summed,                  !- Type of Data in Variable
  10125     ZoneTimeStep,            !- Update Frequency
  10126     ,                        !- EMS Program or Subroutine Name
  10127     J;                       !- Units
  10128 
  10129 Meter:Custom,
  10130     Wired_LTG_Electricity,   !- Name
  10131     Electricity,             !- Fuel Type
  10132     ,                        !- Key Name 1
  10133     Wired_LTG;               !- Output Variable or Meter Name 1
  10134 
  10135 Meter:CustomDecrement,
  10136     Wired_Int_EQUIP,         !- Name
  10137     Electricity,             !- Fuel Type
  10138     InteriorEquipment:Electricity,  !- Source Meter Name
  10139     Core_bottom_Elevators_Equip,  !- Key Name 1
  10140     Electric Equipment Electric Energy;  !- Output Variable or Meter Name 1
  10141 
  10142 ElectricLoadCenter:Transformer,
  10143     Transformer 1,           !- Name
  10144     Always_On,               !- Availability Schedule Name
  10145     PowerInFromGrid,         !- Transformer Usage
  10146     ,                        !- Zone Name
  10147     ,                        !- Radiative Fraction
  10148     45000,                   !- Rated Capacity {VA}
  10149     3,                       !- Phase
  10150     Aluminum,                !- Conductor Material
  10151     150,                     !- Full Load Temperature Rise {C}
  10152     0.1,                     !- Fraction of Eddy Current Losses
  10153     NominalEfficiency,       !- Performance Input Method
  10154     ,                        !- Rated No Load Loss {W}
  10155     ,                        !- Rated Load Loss {W}
  10156     0.977,                   !- Nameplate Efficiency
  10157     0.35,                    !- Per Unit Load for Nameplate Efficiency
  10158     75,                      !- Reference Temperature for Nameplate Efficiency {C}
  10159     ,                        !- Per Unit Load for Maximum Efficiency
  10160     Yes,                     !- Consider Transformer Loss for Utility Cost
  10161     Wired_LTG_Electricity,   !- Meter 1 Name
  10162     Wired_INT_EQUIP;         !- Meter 2 Name
  10163 
  10164 !
  10165 ! End Addendum O transformers implementation
  10166 !
  10167 EnergyManagementSystem:Sensor,
  10168     OAT,                     !- Name
  10169     Environment,             !- Output:Variable or Output:Meter Index Key Name
  10170     Site Outdoor Air Drybulb Temperature;  !- Output:Variable or Output:Meter Name
  10171 
  10172 EnergyManagementSystem:Actuator,
  10173     CLGSETP_SCH_Actuator,    !- Name
  10174     CLGSETP_SCH_Yes_Optimum, !- Actuated Component Unique Name
  10175     Schedule:Compact,        !- Actuated Component Type
  10176     Schedule Value;          !- Actuated Component Control Type
  10177 
  10178 EnergyManagementSystem:Actuator,
  10179     HTGSETP_SCH_Actuator,    !- Name
  10180     HTGSETP_SCH_Yes_Optimum, !- Actuated Component Unique Name
  10181     Schedule:Compact,        !- Actuated Component Type
  10182     Schedule Value;          !- Actuated Component Control Type
  10183 
  10184 EnergyManagementSystem:ProgramCallingManager,
  10185     OA_BASED_OPTIMUM_START_EMS_Program Manager,  !- Name
  10186     BeginTimestepBeforePredictor,  !- EnergyPlus Model Calling Point
  10187     OA_BASED_OPTIMUM_START_EMS_Program;  !- Program Name 1
  10188 
  10189 EnergyManagementSystem:Program,
  10190     OA_BASED_OPTIMUM_START_EMS_Program,  !- Name
  10191     IF DaylightSavings==0 && DayOfWeek>1 && Hour==5 && OAT<23.9 && OAT>1.7,  !- Program Line 1
  10192     SET CLGSETP_SCH_Actuator = 26.7,  !- Program Line 2
  10193     SET HTGSETP_SCH_Actuator = 15.6,  !- A4
  10194     ELSEIF DaylightSavings==1 && DayOfWeek>1 && Hour==4 && OAT<23.9 && OAT>1.7,  !- A5
  10195     SET CLGSETP_SCH_Actuator = 26.7,  !- A6
  10196     SET HTGSETP_SCH_Actuator = 15.6,  !- A7
  10197     ELSE,                    !- A8
  10198     SET CLGSETP_SCH_Actuator = NULL,  !- A9
  10199     SET HTGSETP_SCH_Actuator = NULL,  !- A10
  10200     ENDIF;                   !- A11
  10201 
  Processing Input Data File (in.idf) -- Complete
  Maximum number of Alpha IDF Args=          94
  Maximum number of Numeric IDF Args=          22
  Number of IDF "Lines"=         934
  Number of Defaulted Fields=         108
  Number of Fields with Defaults=        1899
  Number of Autosized Fields=          80
  Number of Autosizable Fields =         113
  Number of Autocalculated Fields=         143
  Number of Autocalculatable Fields =         252
 Getting object=VERSION
 Getting object=HEATBALANCEALGORITHM
 Getting object=TIMESTEP
 Getting object=SIMULATIONCONTROL
 Getting object=OUTPUT:SURFACES:LIST
 Getting object=OUTPUT:SURFACES:DRAWING
 Getting object=OUTPUT:VARIABLEDICTIONARY
 Getting object=OUTPUT:CONSTRUCTIONS
 Getting object=OUTPUT:ENERGYMANAGEMENTSYSTEM
 Getting object=BRANCH
 Getting object=CURVE:BIQUADRATIC
 Getting object=CURVE:QUADRATIC
 Getting object=NODELIST
 Getting object=BRANCHLIST
 Getting object=DESIGNSPECIFICATION:OUTDOORAIR
 Getting object=DESIGNSPECIFICATION:ZONEAIRDISTRIBUTION
 Getting object=SIZING:PARAMETERS
 Getting object=ZONE
 Getting object=SIZING:ZONE
 Getting object=SIZING:SYSTEM
 Getting object=SIZING:PLANT
 Getting object=OUTPUT:TABLE:SUMMARYREPORTS
 Getting object=SIZINGPERIOD:DESIGNDAY
 Getting object=RUNPERIOD
 Getting object=RUNPERIODCONTROL:SPECIALDAYS
 Getting object=RUNPERIODCONTROL:DAYLIGHTSAVINGTIME
 Getting object=SITE:LOCATION
 Getting object=SITE:GROUNDTEMPERATURE:BUILDINGSURFACE
 Getting object=SITE:WATERMAINSTEMPERATURE
 Getting object=OUTPUT:VARIABLE
 Getting object=SCHEDULE:COMPACT
  Processing Schedule Input -- Start
 Getting object=SCHEDULETYPELIMITS
 Getting object=SCHEDULE:CONSTANT
  Processing Schedule Input -- Complete
 Getting object=BUILDING
 Getting object=SURFACECONVECTIONALGORITHM:INSIDE
 Getting object=SURFACECONVECTIONALGORITHM:OUTSIDE
 Getting object=MATERIAL
 Getting object=MATERIAL:NOMASS
 Getting object=WINDOWMATERIAL:GLAZING
 Getting object=WINDOWMATERIAL:GAS
 Getting object=CONSTRUCTION
 Getting object=GLOBALGEOMETRYRULES
 Getting object=BUILDINGSURFACE:DETAILED
 Getting object=FENESTRATIONSURFACE:DETAILED
 Getting object=INTERNALMASS
 Getting object=PEOPLE
 Getting object=LIGHTS
 Getting object=ELECTRICEQUIPMENT
 Getting object=SHADOWCALCULATION
 Getting object=DAYLIGHTING:CONTROLS
 Getting object=WATERHEATER:MIXED
 Getting object=ZONEINFILTRATION:DESIGNFLOWRATE
 Getting object=OUTDOORAIR:NODELIST
 Getting object=OUTDOORAIR:NODE
 Getting object=ZONECONTROL:THERMOSTAT
 Getting object=THERMOSTATSETPOINT:DUALSETPOINT
 Getting object=ENERGYMANAGEMENTSYSTEM:SENSOR
 Getting object=ENERGYMANAGEMENTSYSTEM:ACTUATOR
 Getting object=ENERGYMANAGEMENTSYSTEM:GLOBALVARIABLE
 Getting object=ENERGYMANAGEMENTSYSTEM:PROGRAM
 Getting object=ENERGYMANAGEMENTSYSTEM:OUTPUTVARIABLE
 Getting object=ENERGYMANAGEMENTSYSTEM:PROGRAMCALLINGMANAGER
 Getting object=SETPOINTMANAGER:SCHEDULED
 Getting object=SETPOINTMANAGER:MIXEDAIR
 Getting object=PLANTLOOP
 Getting object=AVAILABILITYMANAGER:NIGHTCYCLE
 Getting object=AVAILABILITYMANAGERASSIGNMENTLIST
 Getting object=CONNECTORLIST
 Getting object=CONNECTOR:SPLITTER
 Getting object=CONNECTOR:MIXER
 Getting object=ZONEHVAC:EQUIPMENTCONNECTIONS
 Getting object=ZONEHVAC:EQUIPMENTLIST
 Getting object=AIRLOOPHVAC:SUPPLYPATH
 Getting object=AIRLOOPHVAC:RETURNPATH
 Getting object=WATERUSE:EQUIPMENT
 Getting object=WATERUSE:CONNECTIONS
 Getting object=ELECTRICLOADCENTER:TRANSFORMER
 Getting object=AIRLOOPHVAC:ZONESPLITTER
 Getting object=ZONEHVAC:AIRDISTRIBUTIONUNIT
 Getting object=AIRTERMINAL:SINGLEDUCT:VAV:REHEAT
 Getting object=COIL:HEATING:ELECTRIC
 Getting object=COIL:HEATING:GAS
 Getting object=AIRLOOPHVAC:RETURNPLENUM
 Getting object=AIRLOOPHVAC:ZONEMIXER
 Getting object=AIRLOOPHVAC
 Getting object=AIRLOOPHVAC:CONTROLLERLIST
 Getting object=AIRLOOPHVAC:OUTDOORAIRSYSTEM
 Getting object=AIRLOOPHVAC:OUTDOORAIRSYSTEM:EQUIPMENTLIST
 Getting object=OUTDOORAIR:MIXER
 Getting object=EXTERIOR:LIGHTS
 Getting object=CONTROLLER:OUTDOORAIR
 Getting object=CONTROLLER:MECHANICALVENTILATION
 Getting object=COILSYSTEM:COOLING:DX
 Getting object=COIL:COOLING:DX:TWOSPEED
 Getting object=FAN:VARIABLEVOLUME
 Getting object=PIPE:ADIABATIC
 Getting object=PLANTEQUIPMENTOPERATIONSCHEMES
 Getting object=PLANTEQUIPMENTOPERATION:HEATINGLOAD
 Getting object=PLANTEQUIPMENTLIST
 Getting object=PUMP:CONSTANTSPEED
 Getting object=METER:CUSTOM
 Getting object=METER:CUSTOMDECREMENT
 Getting object=OUTPUT:METER:METERFILEONLY
 Getting object=OUTPUT:TABLE:MONTHLY
 Getting object=OUTPUTCONTROL:TABLE:STYLE
 MonthlyInputCount=          19
 sizeMonthlyInput=          25
 MonthlyFieldSetInputCount=         144
 sizeMonthlyFieldSetInput=         150
 MonthlyTablesCount=         168
 MonthlyColumnsCount=         928
 sizeReportName=         100
 numReportName=          13
 sizeSubTable=         100
 numSubTable=          63
 sizeColumnTag=         400
 numColumnTag=         397
 sizeTableEntry=        5400
 numTableEntry=        5377
 sizeCompSizeTableEntry=         100
 numCompSizeTableEntry=          65
 NumOfRVariable=       16366
 NumOfRVariable(Total)=       16366
 NumOfRVariable(Actual)=         677
 NumOfRVariable(Summed)=         572
 NumOfRVariable(Meter)=         196
 NumOfIVariable=         723
 NumOfIVariable(Total)=         723
 NumOfIVariable(Actual)=           0
 NumOfIVariable(Summed)=           0
 MaxRVariable=        1000
 MaxIVariable=          10
 NumEnergyMeters=         160
 NumVarMeterArrays=         197
 maxUniqueKeyCount=        1500
 maxNumberOfFigures=           1
 MAXHCArrayBounds=          10
 MaxVerticesPerSurface=           4
 NumReportList=         500
 InstMeterCacheSize=        1000
 ClippingAlgorithm=SutherlandHodgman
 MonthlyFieldSetInputCount=         144
 NumConsideredOutputVariables=          89
 MaxConsideredOutputVariables=          89
 numActuatorsUsed=           4
 numEMSActuatorsAvailable=        2391
 maxEMSActuatorsAvailable=        3000
 numInternalVariablesUsed=           0
 numEMSInternalVarsAvailable=         460
 maxEMSInternalVarsAvailable=        1000
 NumOfNodeConnections=         443
 MaxNumOfNodeConnections=        1000
