  Processing Data Dictionary (Energy+.idd) File -- Complete
  Maximum number of Alpha Args=        4500
  Maximum number of Numeric Args=       21040
  Number of Object Definitions=         689
  Number of Section Definitions=           2
  Total Number of Alpha Fields=       16712
  Total Number of Numeric Fields=       38446
  Total Number of Fields=       55158
  Processing Input Data File (in.idf) -- Start
      1 !-Generator IDFEditor 1.44
      2 !-Option OriginalOrderTop UseSpecialFormat
      3 
      4 !-NOTE: All comments with '!-' are ignored by the IDFEditor and are generated automatically.
      5 !-      Use '!' comments if they need to be retained when using the IDFEditor.
      6 
      7 Output:Variable,*,Zone Air Terminal VAV Damper Position,Detailed;
      8 
      9 Output:SQLite,
     10     SimpleAndTabular;        !- Option Type
     11 
     12 EnergyManagementSystem:TrendVariable,
     13     T_Set_Point_Logged,      !- Name
     14     ZoneT_Setpoint_Reset_bak,!- EMS Variable Name
     15     2;                       !- Number of Timesteps to be Logged
     16 
     17 Output:Variable,Perimeter_top_ZN_3,Zone Mean Air Temperature,Detailed;
     18 
     19 Schedule:Compact,
     20     HTGSETP_SCH_PACU_VAV_bot,!- Name
     21     Temperature,             !- Schedule Type Limits Name
     22     Through: 12/31,          !- Field 1
     23     For: WinterDesignDay,    !- Field 2
     24     Until: 05:00, 15.6,      !- Field 4
     25     Until: 06:00, 17.6,      !- Field 6
     26     Until: 07:00, 19.6,      !- Field 8
     27     Until: 22:00, 21.0,      !- Field 10
     28     Until: 24:00, 15.6,      !- Field 12
     29     For: Weekdays,           !- Field 13
     30     Until: 05:00, 15.6,      !- Field 15
     31     Until: 06:00, 21.0,      !- Field 17
     32     Until: 07:00, 21.0,      !- Field 19
     33     Until: 22:00, 21.0,      !- Field 21
     34     Until: 24:00, 15.6,      !- Field 23
     35     For SummerDesignDay,     !- Field 24
     36     Until: 24:00, 15.6,      !- Field 26
     37     For: Saturday,           !- Field 27
     38     Until: 05:00, 15.6,      !- Field 29
     39     Until: 06:00, 21.0,      !- Field 31
     40     Until: 07:00, 21.0,      !- Field 33
     41     Until: 17:00, 21.0,      !- Field 35
     42     Until: 24:00, 15.6,      !- Field 37
     43     For:Sunday Holidays AllOtherDays,  !- Field 38
     44     Until: 24:00, 15.6;      !- Field 40
     45 
     46 Output:Variable,Perimeter_top_ZN_3,Zone Outdoor Air Drybulb Temperature,Detailed;
     47 Output:Variable,Custom_Zone_ClgT_Setpoint,Schedule Value,Detailed;
     48 Output:Variable,Perimeter_top_ZN_3 VAV Box Outlet Node,System Node Mass Flow Rate,Detailed;
     49 Output:Variable,Perimeter_top_ZN_3 VAV Box Outlet Node,System Node Temperature,Detailed;
     50 
     51 Output:EnergyManagementSystem,
     52     Verbose,                 !- Actuator Availability Dictionary Reporting
     53     None,                    !- Internal Variable Availability Dictionary Reporting
     54     ErrorsOnly;              !- EMS Runtime Language Debug Output Level
     55 
     56 ! Custom zone cooling setpoint
     57 Schedule:Constant,Custom_Zone_ClgT_Setpoint,Temperature,30;
     58 
     59 EnergyManagementSystem:Actuator,
     60     ZoneT_Setpoint_Reset,    !- Name
     61     Custom_Zone_ClgT_Setpoint,  !- Actuated Component Unique Name
     62     Schedule:Constant,       !- Actuated Component Type
     63     Schedule Value;          !- Actuated Component Control Type
     64 
     65 !asda
     66 EnergyManagementSystem:Program,
     67     MyCustom_Zone_Clg_Setpoint,  !- Name
     68     if (currentEnvironment==3),  !- Program Line 1
     69     if hour<6,               !- Program Line 2
     70     Set ZoneT_Setpoint_Reset = 30,  !- A4
     71     Set ZoneT_Setpoint_Reset_bak = ZoneT_Setpoint_Reset,  !- A5
     72     elseif (Hour>=6) && (Hour<22),  !- A6
     73     set temp = minute,       !- A7
     74     set temp_value = @Mod minute 15,  !- A8
     75     if (temp_value==0),      !- A9
     76     Set ZoneT_Setpoint_Reset = @RandomUniform  16 24,  !- A10
     77     Set ZoneT_Setpoint_Reset_bak = ZoneT_Setpoint_Reset,  !- A11
     78     else,                    !- A12
     79     set temp = @TrendValue T_Set_Point_Logged 1,  !- A13
     80     Set ZoneT_Setpoint_Reset = @TrendValue T_Set_Point_Logged 1,  !- A14
     81     Set ZoneT_Setpoint_Reset_bak = ZoneT_Setpoint_Reset,  !- A15
     82     endif,                   !- A16
     83     else,                    !- A17
     84     Set ZoneT_Setpoint_Reset = 30,  !- A18
     85     Set ZoneT_Setpoint_Reset_bak = ZoneT_Setpoint_Reset,  !- A19
     86     endif,                   !- A20
     87     else,                    !- A21
     88     if hour<6,               !- A22
     89     Set ZoneT_Setpoint_Reset = 30,  !- A23
     90     Set ZoneT_Setpoint_Reset_bak = ZoneT_Setpoint_Reset,  !- A24
     91     elseif (Hour>=6) && (Hour<22),  !- A25
     92     Set ZoneT_Setpoint_Reset = 16,  !- A26
     93     Set ZoneT_Setpoint_Reset_bak = ZoneT_Setpoint_Reset,  !- A27
     94     else,                    !- A28
     95     Set ZoneT_Setpoint_Reset = 30,  !- A29
     96     Set ZoneT_Setpoint_Reset_bak = ZoneT_Setpoint_Reset,  !- A30
     97     endif,                   !- A31
     98     endif;                   !- A32
     99 
    100 EnergyManagementSystem:ProgramCallingManager,
    101     MyCustom_Zone_ClgT_Reset_CallPoint,  !- Name
    102     BeginTimestepBeforePredictor,  !- EnergyPlus Model Calling Point
    103     MyCustom_Zone_Clg_Setpoint;  !- Program Name 1
    104 
    105 EnergyManagementSystem:Actuator,
    106     VAV_1_Flowrate_Setpoint, !- Name
    107     Perimeter_top_ZN_1 VAV Box Damper Node,  !- Actuated Component Unique Name
    108     System Node Setpoint,    !- Actuated Component Type
    109     Mass Flow Rate Setpoint; !- Actuated Component Control Type
    110 
    111 EnergyManagementSystem:Program,
    112     VAV_1_Flowrate_Set,      !- Name
    113     if CurrentEnvironment == 3,  !- Program Line 1
    114     Set VAV_1_Flowrate_Setpoint =0.85,  !- Program Line 2
    115     ELSE,                    !- A4
    116     Set VAV_1_Flowrate_Setpoint =NULL,  !- A5
    117     ENDIF;                   !- A6
    118 
    119 EnergyManagementSystem:ProgramCallingManager,
    120     EMS-based Setpoint Managers,  !- Name
    121     AfterPredictorAfterHVACManagers,  !- EnergyPlus Model Calling Point
    122     VAV_1_Flowrate_Set;      !- Program Name 1
    123 
    124 ! -----------------------------------------------------------------------
    125 ! The 90.1 Prototype Building Models were developed by Pacific Northwest National Laboratory (PNNL),
    126 ! under contract with the U.S. Department of Energy (DOE).  These building models were originally derived from
    127 ! DOE’s Commercial Reference Building Models with modifications from ASHRAE 90.1 committee,
    128 ! Advanced Energy Design Guide series, and other building industry expert input.
    129 ! The original purpose of developing these prototype building models was to measure energy saving impacts from
    130 ! newly published editions of ASHRAE Standard 90.1.  The basic building descriptions can be found in the Scorecards
    131 ! posted at this website.  The detailed descriptions of the prototype model development and addenda modeling
    132 ! strategies can be found in PNNL’s reports, entitled "Achieving 30% Goal: Energy and Cost Saving Analysis
    133 ! of ASHRAE/IES Standard 90.1-2010" and "Enhancements to ASHRAE Standard 90.1 Prototype Building Models",
    134 ! both posted at this website.
    135 ! -----------------------------------------------------------------------
    136 !
    137 ! BEGIN ECONOMIZER MAP
    138 ! Economizer Name, DX COIL Name
    139 ! PACU_VAV_bot_OA_Controller, PACU_VAV_bot_CoolC DXCoil
    140 ! PACU_VAV_mid_OA_Controller, PACU_VAV_mid_CoolC DXCoil
    141 ! PACU_VAV_top_OA_Controller, PACU_VAV_top_CoolC DXCoil
    142 ! END ECONOMIZER MAP
    143 !
    144 ! WeatherFile:  USA_FL_Miami.Intl.AP.722020_TMY3.epw
    145 ! IDF File:     /phome/comstd/ASHRAE90.1_2013_for_reporting/OfficeMedium/90.1_std2013/input.nobackup/PI.Oct2013_OfficeMedium_STD2013_Miami.dd.idf
    146 ! Run Case:     PI.Oct2013_OfficeMedium_STD2013_Miami
    147 ! GPARM parameters as input:
    148 !    Case = PI.Oct2013_OfficeMedium_STD2013_Miami
    149 !    weatherfile = USA_FL_Miami_TMY2.epw
    150 !    annual_run = yes
    151 !    slab_gtp = Zone1A_nonres_R0_0ftV_OfficeMedium_Miami_AddendumBB.gtp
    152 !    basement_tempt = OfficeMedium_STD2007_Miami_bsmt.idf
    153 !    avg_oa_tempt_ip = 75.76
    154 !    maxdiff_oa_tempt_ip = 14.35
    155 !    ext_wall_type = SteelFramedWall
    156 !    nonres_ext_wall_ufactor = 0.704104612
    157 !    roof_type = LightweightRoof
    158 !    nonres_roof_ufactor = 0.272556624
    159 !    roof_emissivity = 0.75
    160 !    roof_solar_absorp = 0.45
    161 !    nonres_window = Window_U_0.60_SHGC_0.25
    162 !    economizer = NoEconomizer
    163 !    skip_economizer_control = No
    164 !    sidelighting_control = yes_AY
    165 !    LPD_office = 8.826406542
    166 !    exterior_lights_watts = 0
    167 !    exterior_lights_watts_a = 623.03
    168 !    exterior_lights_watts_b = 7476.45
    169 !    avg_oa_tempt = 24.31111111
    170 !    maxdiff_oa_tempt = 7.972222222
    171 !    infil = 0.00056896
    172 !    oa_flow_per_area = 0.000431773
    173 !    SAT_reset_switch = No
    174 !    SAT_reset_T = NA
    175 !    door_infil = 1.04300287
    176 !    frac_ofpk = 0.144
    177 !    damper_sched = MinOA_Sched
    178 !    economizer_lockout = NoLockout
    179 !    heating_damper_act = Normal
    180 !    add_ck_pacu_vav_bot = Yes
    181 !    add_ck_pacu_vav_mid = Yes
    182 !    add_ck_pacu_vav_top = Yes
    183 !    core_bottom_mdp = 0.3
    184 !    perimeter_bot_zn_1_mdp = 0.314144253750149
    185 !    perimeter_bot_zn_2_mdp = 0.3
    186 !    perimeter_bot_zn_3_mdp = 0.323291276838756
    187 !    perimeter_bot_zn_4_mdp = 0.3
    188 !    core_mid_mdp = 0.358790110848353
    189 !    perimeter_mid_zn_1_mdp = 0.3
    190 !    perimeter_mid_zn_2_mdp = 0.3
    191 !    perimeter_mid_zn_3_mdp = 0.3
    192 !    perimeter_mid_zn_4_mdp = 0.3
    193 !    core_top_mdp = 0.341177534848771
    194 !    perimeter_top_zn_1_mdp = 0.3
    195 !    perimeter_top_zn_2_mdp = 0.3
    196 !    perimeter_top_zn_3_mdp = 0.3
    197 !    perimeter_top_zn_4_mdp = 0.3
    198 !    pacu_vav_bot_oaf = 1.19508883333333
    199 !    pacu_vav_mid_oaf = 1.19508883333333
    200 !    pacu_vav_top_oaf = 1.19508883333333
    201 !    BLDG_ELEVATORS_LIGHTS_FAN_SCH = ELEV_LIGHT_FAN_SCH_ADD_DF
    202 !    BLDG_ELEVATORS_LIGHTS_FAN_POWER = 125
    203 !    BLDG_EQUIP_SCH = BLDG_EQUIP_SCH_ADV
    204 !    addendum_cd = yes
    205 !    pv_generator = no
    206 !    pv_surface_area = 0
    207 !    STD189_overhang = no
    208 !    swh_et = 0.808039999
    209 !    swh_ua = 7.561562668
    210 !    ext_lgt_sch = Exterior_Lgt_ALWAYS_ON
    211 !    PACU_VAV_bot_ERV = No
    212 !    PACU_VAV_mid_ERV = No
    213 !    PACU_VAV_top_ERV = No
    214 !    LTG_SCH_SET = LTG_SET_STD2013
    215 !    transformer_size = 45000
    216 !    transformer_eff = 0.977
    217 !    PACU_VAV_bot_ERV_power = 907.476237916664
    218 !    PACU_VAV_mid_ERV_power = 907.476237916664
    219 !    PACU_VAV_top_ERV_power = 907.476237916664
    220 !    OA_BASED_OPTIMUM_START_EMS = yes
    221 !    OPTIMUM_START_SF_DEPENDENT_EMS = no
    222 !    wwr = 0.33
    223 !    pipe_heat_loss = 1277
    224 !    skip_EMSprogram = yes
    225 !    HtgSetP_Sch_PACU_VAV_bot = HTGSETP_SCH_YES_OPTIMUM
    226 !    HtgSetP_Sch_PACU_VAV_mid = HTGSETP_SCH_YES_OPTIMUM
    227 !    HtgSetP_Sch_PACU_VAV_top = HTGSETP_SCH_YES_OPTIMUM
    228 !    ClgSetP_Sch_PACU_VAV_bot = CLGSETP_SCH_YES_OPTIMUM
    229 !    ClgSetP_Sch_PACU_VAV_mid = CLGSETP_SCH_YES_OPTIMUM
    230 !    ClgSetP_Sch_PACU_VAV_top = CLGSETP_SCH_YES_OPTIMUM
    231 !    Wfile_TMY3 = USA_FL_Miami.Intl.AP.722020_TMY3.epw
    232 !    loadProfile = No
    233 !    receptacle_ctrl_occ_reduction_frac = 0.95308699
    234 !    receptacle_ctrl_unocc_reduction_frac = 0.769184602
    235 Version,8.0;
    236 
    237 Building,
    238     Medium Office,           !- Name
    239     0.0000,                  !- North Axis {deg}
    240     City,                    !- Terrain
    241     0.0400,                  !- Loads Convergence Tolerance Value
    242     0.2000,                  !- Temperature Convergence Tolerance Value {deltaC}
    243     FullInteriorAndExterior, !- Solar Distribution
    244     25,                      !- Maximum Number of Warmup Days
    245     6;                       !- Minimum Number of Warmup Days
    246 
    247 Timestep,60;
    248 SurfaceConvectionAlgorithm:Inside,TARP;
    249 SurfaceConvectionAlgorithm:Outside,TARP;
    250 HeatBalanceAlgorithm,ConductionTransferFunction;
    251 
    252 ShadowCalculation,
    253     AverageOverDaysInFrequency,  !- Calculation Method
    254     30;                      !- Calculation Frequency
    255 
    256 SimulationControl,
    257     Yes,                     !- Do Zone Sizing Calculation
    258     Yes,                     !- Do System Sizing Calculation
    259     Yes,                     !- Do Plant Sizing Calculation
    260     Yes,                     !- Run Simulation for Sizing Periods
    261     YES;                     !- Run Simulation for Weather File Run Periods
    262 
    263 RunPeriod,
    264     ,                        !- Name
    265     6,                       !- Begin Month
    266     20,                      !- Begin Day of Month
    267     6,                       !- End Month
    268     27,                      !- End Day of Month
    269     Sunday,                  !- Day of Week for Start Day
    270     No,                      !- Use Weather File Holidays and Special Days
    271     No,                      !- Use Weather File Daylight Saving Period
    272     No,                      !- Apply Weekend Holiday Rule
    273     Yes,                     !- Use Weather File Rain Indicators
    274     Yes;                     !- Use Weather File Snow Indicators
    275 
    276 ! US National Holidays
    277 RunPeriodControl:SpecialDays,
    278     New Years Day,           !- Name
    279     January 1,               !- Start Date
    280     1,                       !- Duration {days}
    281     Holiday;                 !- Special Day Type
    282 
    283 RunPeriodControl:SpecialDays,
    284     Veterans Day,            !- Name
    285     November 11,             !- Start Date
    286     1,                       !- Duration {days}
    287     Holiday;                 !- Special Day Type
    288 
    289 RunPeriodControl:SpecialDays,
    290     Christmas,               !- Name
    291     December 25,             !- Start Date
    292     1,                       !- Duration {days}
    293     Holiday;                 !- Special Day Type
    294 
    295 RunPeriodControl:SpecialDays,
    296     Independence Day,        !- Name
    297     July 4,                  !- Start Date
    298     1,                       !- Duration {days}
    299     Holiday;                 !- Special Day Type
    300 
    301 RunPeriodControl:SpecialDays,
    302     MLK Day,                 !- Name
    303     3rd Monday in January,   !- Start Date
    304     1,                       !- Duration {days}
    305     Holiday;                 !- Special Day Type
    306 
    307 RunPeriodControl:SpecialDays,
    308     Presidents Day,          !- Name
    309     3rd Monday in February,  !- Start Date
    310     1,                       !- Duration {days}
    311     Holiday;                 !- Special Day Type
    312 
    313 RunPeriodControl:SpecialDays,
    314     Memorial Day,            !- Name
    315     Last Monday in May,      !- Start Date
    316     1,                       !- Duration {days}
    317     Holiday;                 !- Special Day Type
    318 
    319 RunPeriodControl:SpecialDays,
    320     Labor Day,               !- Name
    321     1st Monday in September, !- Start Date
    322     1,                       !- Duration {days}
    323     Holiday;                 !- Special Day Type
    324 
    325 RunPeriodControl:SpecialDays,
    326     Columbus Day,            !- Name
    327     2nd Monday in October,   !- Start Date
    328     1,                       !- Duration {days}
    329     Holiday;                 !- Special Day Type
    330 
    331 RunPeriodControl:SpecialDays,
    332     Thanksgiving,            !- Name
    333     4th Thursday in November,!- Start Date
    334     1,                       !- Duration {days}
    335     Holiday;                 !- Special Day Type
    336 
    337 ! Daylight Saving Period in US
    338 RunPeriodControl:DaylightSavingTime,
    339     2nd Sunday in March,     !- Start Date
    340     1st Sunday in November;  !- End Date
    341 
    342 ! Location and design-day objects created by:
    343 ! Site:Location and design-day objects created by:
    344 ! /tools/bin/ddy2idf /phome/weather/EnergyPlus/tmy3.new/all/USA_FL_Miami.Intl.AP.722020_TMY3.ddy
    345 !
    346 Site:Location,
    347     Miami Intl Ap_FL_USA Design_Conditions,  !- Name
    348     25.82,                   !- Latitude {deg}
    349     -80.30,                  !- Longitude {deg}
    350     -5.00,                   !- Time Zone {hr}
    351     11.00;                   !- Elevation {m}
    352 
    353 SizingPeriod:DesignDay,
    354     Miami Intl Ap Ann Htg 99.6% Condns DB,  !- Name
    355     1,                       !- Month
    356     21,                      !- Day of Month
    357     WinterDesignDay,         !- Day Type
    358     8.7,                     !- Maximum Dry-Bulb Temperature {C}
    359     0.0,                     !- Daily Dry-Bulb Temperature Range {deltaC}
    360     DefaultMultipliers,      !- Dry-Bulb Temperature Range Modifier Type
    361     ,                        !- Dry-Bulb Temperature Range Modifier Day Schedule Name
    362     Wetbulb,                 !- Humidity Condition Type
    363     8.7,                     !- Wetbulb or DewPoint at Maximum Dry-Bulb {C}
    364     ,                        !- Humidity Condition Day Schedule Name
    365     ,                        !- Humidity Ratio at Maximum Dry-Bulb {kgWater/kgDryAir}
    366     ,                        !- Enthalpy at Maximum Dry-Bulb {J/kg}
    367     ,                        !- Daily Wet-Bulb Temperature Range {deltaC}
    368     101193.,                 !- Barometric Pressure {Pa}
    369     3.8,                     !- Wind Speed {m/s}
    370     340,                     !- Wind Direction {deg}
    371     No,                      !- Rain Indicator
    372     No,                      !- Snow Indicator
    373     No,                      !- Daylight Saving Time Indicator
    374     ASHRAEClearSky,          !- Solar Model Indicator
    375     ,                        !- Beam Solar Day Schedule Name
    376     ,                        !- Diffuse Solar Day Schedule Name
    377     ,                        !- ASHRAE Clear Sky Optical Depth for Beam Irradiance (taub) {dimensionless}
    378     ,                        !- ASHRAE Clear Sky Optical Depth for Diffuse Irradiance (taud) {dimensionless}
    379     0.00;                    !- Sky Clearness
    380 
    381 SizingPeriod:DesignDay,
    382     Miami Intl Ap Ann Clg .4% Condns DB=>MWB,  !- Name
    383     7,                       !- Month
    384     21,                      !- Day of Month
    385     SummerDesignDay,         !- Day Type
    386     33.2,                    !- Maximum Dry-Bulb Temperature {C}
    387     6.7,                     !- Daily Dry-Bulb Temperature Range {deltaC}
    388     DefaultMultipliers,      !- Dry-Bulb Temperature Range Modifier Type
    389     ,                        !- Dry-Bulb Temperature Range Modifier Day Schedule Name
    390     Wetbulb,                 !- Humidity Condition Type
    391     25.3,                    !- Wetbulb or DewPoint at Maximum Dry-Bulb {C}
    392     ,                        !- Humidity Condition Day Schedule Name
    393     ,                        !- Humidity Ratio at Maximum Dry-Bulb {kgWater/kgDryAir}
    394     ,                        !- Enthalpy at Maximum Dry-Bulb {J/kg}
    395     ,                        !- Daily Wet-Bulb Temperature Range {deltaC}
    396     101193.,                 !- Barometric Pressure {Pa}
    397     4.5,                     !- Wind Speed {m/s}
    398     140,                     !- Wind Direction {deg}
    399     No,                      !- Rain Indicator
    400     No,                      !- Snow Indicator
    401     No,                      !- Daylight Saving Time Indicator
    402     ASHRAETau,               !- Solar Model Indicator
    403     ,                        !- Beam Solar Day Schedule Name
    404     ,                        !- Diffuse Solar Day Schedule Name
    405     0.528,                   !- ASHRAE Clear Sky Optical Depth for Beam Irradiance (taub) {dimensionless}
    406     1.905;                   !- ASHRAE Clear Sky Optical Depth for Diffuse Irradiance (taud) {dimensionless}
    407 
    408 !
    409 ! Ground temperature object produced by /tools/bin/gt2idf /phome/comstd/_p.gtp/state.analyses/slab/output/Zone1A_nonres_R0_0ftV_OfficeMedium_Miami_AddendumBB.gtp
    410 Site:GroundTemperature:BuildingSurface,20.99,20.98,20.99,21.04,21.06,23.22,23.57,23.64,23.66,21.46,21.16,21.05;
    411 
    412 Site:WaterMainsTemperature,
    413     Correlation,             !- Calculation Method
    414     ,                        !- Temperature Schedule Name
    415     24.31111111,             !- Annual Average Outdoor Air Temperature {C}
    416     7.972222222;             !- Maximum Difference In Monthly Average Outdoor Air Temperatures {deltaC}
    417 
    418 ! ------------------------------------------------------------------
    419 ! $Id: OpaqueLibraryScript_v30.idf,v 1.5 2010/10/21 19:30:30 atha577 Exp $
    420 ! $Log: OpaqueLibraryScript_v30.idf,v $
    421 ! Revision 1.5  2010/10/21 19:30:30  atha577
    422 ! Removed bb constructions for skylights.
    423 !
    424 ! Revision 1.4  2010/10/16 00:49:56  atha577
    425 ! Minor change to bb code.
    426 !
    427 ! Revision 1.3  2010/10/16 00:08:35  atha577
    428 ! Added bb skylight constructions.
    429 !
    430 ! Revision 1.2  2010/01/20 21:56:42  d3l143
    431 ! reset R value of semi-heated Roof to 0.001 if the R values goes below 0.001.  V4.0 has a 0.001 threshold with it.
    432 !
    433 ! Revision 1.1  2010/01/20 21:49:30  d3l143
    434 ! Initial revision
    435 !
    436 ! Note:
    437 ! January 20, 2010: We experienced a problem in upgrading Warehouse from V3.0 to V4.0.
    438 !                   The R value of the semiheated roof goes to around 0.0002 for Miami and Ryihad which V4.0 compliants that it is below 0.001.
    439 !                   This was not a problem for V3.0.  Here we implemented a temporal solution to re-set the r value to 0.001 when it is below it.
    440 ! ------------------------------------------------------------------
    441 !
    442 Material,
    443     Std Wood 6inch,          !- Name
    444     MediumSmooth,            !- Roughness
    445     0.15,                    !- Thickness {m}
    446     0.12,                    !- Conductivity {W/m-K}
    447     540.0000,                !- Density {kg/m3}
    448     1210,                    !- Specific Heat {J/kg-K}
    449     0.9000000,               !- Thermal Absorptance
    450     0.7000000,               !- Solar Absorptance
    451     0.7000000;               !- Visible Absorptance
    452 
    453 Material,
    454     AC02 Acoustic Ceiling,   !- Name
    455     MediumSmooth,            !- Roughness
    456     1.2700000E-02,           !- Thickness {m}
    457     5.7000000E-02,           !- Conductivity {W/m-K}
    458     288.0000,                !- Density {kg/m3}
    459     1339.000,                !- Specific Heat {J/kg-K}
    460     0.9000000,               !- Thermal Absorptance
    461     0.7000000,               !- Solar Absorptance
    462     0.2000000;               !- Visible Absorptance
    463 
    464 Material,
    465     F07 25mm stucco,         !- Name
    466     Smooth,                  !- Roughness
    467     0.0254,                  !- Thickness {m}
    468     0.72,                    !- Conductivity {W/m-K}
    469     1856,                    !- Density {kg/m3}
    470     840,                     !- Specific Heat {J/kg-K}
    471     0.9,                     !- Thermal Absorptance
    472     0.7,                     !- Solar Absorptance
    473     0.7;                     !- Visible Absorptance
    474 
    475 Material,
    476     F08 Metal surface,       !- Name
    477     Smooth,                  !- Roughness
    478     0.0008,                  !- Thickness {m}
    479     45.28,                   !- Conductivity {W/m-K}
    480     7824,                    !- Density {kg/m3}
    481     500;                     !- Specific Heat {J/kg-K}
    482 
    483 Material,
    484     F08 Metal roof surface,  !- Name
    485     Smooth,                  !- Roughness
    486     0.0008,                  !- Thickness {m}
    487     45.28,                   !- Conductivity {W/m-K}
    488     7824,                    !- Density {kg/m3}
    489     500,                     !- Specific Heat {J/kg-K}
    490     0.75,                    !- Thermal Absorptance
    491     0.45;                    !- Solar Absorptance
    492 
    493 Material,
    494     F12 Asphalt shingles,    !- Name
    495     VeryRough,               !- Roughness
    496     0.0032,                  !- Thickness {m}
    497     0.04,                    !- Conductivity {W/m-K}
    498     1120,                    !- Density {kg/m3}
    499     1260,                    !- Specific Heat {J/kg-K}
    500     0.75,                    !- Thermal Absorptance
    501     0.45;                    !- Solar Absorptance
    502 
    503 Material,
    504     F13 Built-up roofing,    !- Name
    505     Rough,                   !- Roughness
    506     0.0095,                  !- Thickness {m}
    507     0.16,                    !- Conductivity {W/m-K}
    508     1120,                    !- Density {kg/m3}
    509     1460,                    !- Specific Heat {J/kg-K}
    510     0.75,                    !- Thermal Absorptance
    511     0.45;                    !- Solar Absorptance
    512 
    513 Material,
    514     G01 13mm gypsum board,   !- Name
    515     Smooth,                  !- Roughness
    516     0.0127,                  !- Thickness {m}
    517     0.1600,                  !- Conductivity {W/m-K}
    518     800.0000,                !- Density {kg/m3}
    519     1090.0000,               !- Specific Heat {J/kg-K}
    520     0.9000,                  !- Thermal Absorptance
    521     0.7000,                  !- Solar Absorptance
    522     0.5000;                  !- Visible Absorptance
    523 
    524 Material,
    525     G01 16mm gypsum board,   !- Name
    526     MediumSmooth,            !- Roughness
    527     0.0159,                  !- Thickness {m}
    528     0.16,                    !- Conductivity {W/m-K}
    529     800,                     !- Density {kg/m3}
    530     1090;                    !- Specific Heat {J/kg-K}
    531 
    532 Material,
    533     G02 16mm plywood,        !- Name
    534     Smooth,                  !- Roughness
    535     0.0159,                  !- Thickness {m}
    536     0.12,                    !- Conductivity {W/m-K}
    537     544,                     !- Density {kg/m3}
    538     1210;                    !- Specific Heat {J/kg-K}
    539 
    540 Material,
    541     M14 150mm heavyweight concrete roof,  !- Name
    542     MediumRough,             !- Roughness
    543     0.1524,                  !- Thickness {m}
    544     2.31,                    !- Conductivity {W/m-K}
    545     2322,                    !- Density {kg/m3}
    546     832;                     !- Specific Heat {J/kg-K}
    547 
    548 Material,
    549     100mm Normalweight concrete wall,  !- Name
    550     MediumRough,             !- Roughness
    551     0.1016,                  !- Thickness {m}
    552     2.31,                    !- Conductivity {W/m-K}
    553     2322,                    !- Density {kg/m3}
    554     832;                     !- Specific Heat {J/kg-K}
    555 
    556 Material,
    557     200mm Normalweight concrete wall,  !- Name
    558     MediumRough,             !- Roughness
    559     0.2032,                  !- Thickness {m}
    560     2.31,                    !- Conductivity {W/m-K}
    561     2322,                    !- Density {kg/m3}
    562     832;                     !- Specific Heat {J/kg-K}
    563 
    564 Material,
    565     100mm Normalweight concrete floor,  !- Name
    566     MediumRough,             !- Roughness
    567     0.1016,                  !- Thickness {m}
    568     2.31,                    !- Conductivity {W/m-K}
    569     2322,                    !- Density {kg/m3}
    570     832;                     !- Specific Heat {J/kg-K}
    571 
    572 Material,
    573     150mm Normalweight concrete floor,  !- Name
    574     MediumRough,             !- Roughness
    575     0.1524,                  !- Thickness {m}
    576     2.31,                    !- Conductivity {W/m-K}
    577     2322,                    !- Density {kg/m3}
    578     832;                     !- Specific Heat {J/kg-K}
    579 
    580 Material,
    581     200mm Normalweight concrete floor,  !- Name
    582     MediumRough,             !- Roughness
    583     0.2032,                  !- Thickness {m}
    584     2.31,                    !- Conductivity {W/m-K}
    585     2322,                    !- Density {kg/m3}
    586     832;                     !- Specific Heat {J/kg-K}
    587 
    588 Material,
    589     M10 200mm concrete block wall,  !- Name
    590     MediumRough,             !- Roughness
    591     0.2032,                  !- Thickness {m}
    592     0.72,                    !- Conductivity {W/m-K}
    593     800,                     !- Density {kg/m3}
    594     832;                     !- Specific Heat {J/kg-K}
    595 
    596 Material,
    597     M10 200mm concrete block basement wall,  !- Name
    598     MediumRough,             !- Roughness
    599     0.2032,                  !- Thickness {m}
    600     1.326,                   !- Conductivity {W/m-K}
    601     1842,                    !- Density {kg/m3}
    602     912;                     !- Specific Heat {J/kg-K}
    603 
    604 ! Name
    605 ! Roughness
    606 ! Thermal Resistance
    607 ! Absorptance:Thermal --
    608 ! Absorptance:Solar
    609 Material:NoMass,
    610     CP02 CARPET PAD,         !- Name
    611     VeryRough,               !- Roughness
    612     0.21648,                 !- Thermal Resistance {m2-K/W}
    613     0.9,                     !- Thermal Absorptance
    614     0.7,                     !- Solar Absorptance
    615     0.8;                     !- Visible Absorptance
    616 
    617 Material:NoMass,
    618     Air_Wall_Material,       !- Name
    619     Rough,                   !- Roughness
    620     0.2079491,               !- Thermal Resistance {m2-K/W}
    621     0.9,                     !- Thermal Absorptance
    622     0.7;                     !- Solar Absorptance
    623 
    624 Material:NoMass,
    625     Nonres_Roof_Insulation,  !- Name
    626     MediumSmooth,            !- Roughness
    627     3.47220376108688,        !- Thermal Resistance {m2-K/W}
    628     0.9,                     !- Thermal Absorptance
    629     0.7,                     !- Solar Absorptance
    630     0.7;                     !- Visible Absorptance
    631 
    632 Material:NoMass,
    633     Res_Roof_Insulation,     !- Name
    634     MediumSmooth,            !- Roughness
    635     0.0299387330245182,      !- Thermal Resistance {m2-K/W}
    636     0.9,                     !- Thermal Absorptance
    637     0.7,                     !- Solar Absorptance
    638     0.7;                     !- Visible Absorptance
    639 
    640 Material:NoMass,
    641     Semiheated_Roof_Insulation,  !- Name
    642     MediumSmooth,            !- Roughness
    643     0.0299387330245182,      !- Thermal Resistance {m2-K/W}
    644     0.9,                     !- Thermal Absorptance
    645     0.7,                     !- Solar Absorptance
    646     0.7;                     !- Visible Absorptance
    647 
    648 Material:NoMass,
    649     Nonres_Exterior_Wall_Insulation,  !- Name
    650     MediumSmooth,            !- Roughness
    651     1.0365220592115,         !- Thermal Resistance {m2-K/W}
    652     0.9,                     !- Thermal Absorptance
    653     0.7,                     !- Solar Absorptance
    654     0.7;                     !- Visible Absorptance
    655 
    656 Material:NoMass,
    657     Res_Exterior_Wall_Insulation,  !- Name
    658     MediumSmooth,            !- Roughness
    659     0.0299387330245182,      !- Thermal Resistance {m2-K/W}
    660     0.9,                     !- Thermal Absorptance
    661     0.7,                     !- Solar Absorptance
    662     0.7;                     !- Visible Absorptance
    663 
    664 Material:NoMass,
    665     Semiheated_Exterior_Wall_Insulation,  !- Name
    666     MediumSmooth,            !- Roughness
    667     0.0299387330245182,      !- Thermal Resistance {m2-K/W}
    668     0.9,                     !- Thermal Absorptance
    669     0.7,                     !- Solar Absorptance
    670     0.7;                     !- Visible Absorptance
    671 
    672 Material:NoMass,
    673     Nonres_Floor_Insulation, !- Name
    674     MediumSmooth,            !- Roughness
    675     0.0299387330245182,      !- Thermal Resistance {m2-K/W}
    676     0.9,                     !- Thermal Absorptance
    677     0.7,                     !- Solar Absorptance
    678     0.7;                     !- Visible Absorptance
    679 
    680 Material:NoMass,
    681     Res_Floor_Insulation,    !- Name
    682     MediumSmooth,            !- Roughness
    683     0.0299387330245182,      !- Thermal Resistance {m2-K/W}
    684     0.9,                     !- Thermal Absorptance
    685     0.7,                     !- Solar Absorptance
    686     0.7;                     !- Visible Absorptance
    687 
    688 Material:NoMass,
    689     Semiheated_Floor_Insulation,  !- Name
    690     MediumSmooth,            !- Roughness
    691     0.0299387330245182,      !- Thermal Resistance {m2-K/W}
    692     0.9,                     !- Thermal Absorptance
    693     0.7,                     !- Solar Absorptance
    694     0.7;                     !- Visible Absorptance
    695 
    696 Material:NoMass,
    697     Std Opaque Door Panel,   !- Name
    698     MediumRough,             !- Roughness
    699     0.123456790123457,       !- Thermal Resistance {m2-K/W}
    700     0.9,                     !- Thermal Absorptance
    701     0.7,                     !- Solar Absorptance
    702     0.7;                     !- Visible Absorptance
    703 
    704 Construction,
    705     InteriorFurnishings,     !- Name
    706     Std Wood 6inch;          !- Outside Layer
    707 
    708 Construction,
    709     Air_Wall,                !- Name
    710     Air_Wall_Material;       !- Outside Layer
    711 
    712 Construction,
    713     DropCeiling,             !- Name
    714     AC02 Acoustic Ceiling;   !- Outside Layer
    715 
    716 Construction,
    717     OpaqueDoor,              !- Name
    718     Std Opaque Door Panel;   !- Outside Layer
    719 
    720 Construction,
    721     AtticRoofDeck,           !- Name
    722     F12 Asphalt shingles,    !- Outside Layer
    723     G02 16mm plywood;        !- Layer 2
    724 
    725 Construction,
    726     int_wall,                !- Name
    727     G01 13mm gypsum board,   !- Outside Layer
    728     G01 13mm gypsum board;   !- Layer 2
    729 
    730 Construction,
    731     ext_slab_8in_with_carpet,!- Name
    732     200mm Normalweight concrete floor,  !- Outside Layer
    733     CP02 CARPET PAD;         !- Layer 2
    734 
    735 Construction,
    736     ext_slab_8in,            !- Name
    737     200mm Normalweight concrete floor;  !- Outside Layer
    738 
    739 Construction,
    740     ext_slab_6in_with_carpet,!- Name
    741     150mm Normalweight concrete floor,  !- Outside Layer
    742     CP02 CARPET PAD;         !- Layer 2
    743 
    744 Construction,
    745     ext_slab_6in,            !- Name
    746     150mm Normalweight concrete floor;  !- Outside Layer
    747 
    748 Construction,
    749     int_slab_floor,          !- Name
    750     100mm Normalweight concrete floor,  !- Outside Layer
    751     CP02 CARPET PAD;         !- Layer 2
    752 
    753 Construction,
    754     int_slab_ceiling,        !- Name
    755     CP02 CARPET PAD,         !- Outside Layer
    756     100mm Normalweight concrete floor;  !- Layer 2
    757 
    758 Construction,
    759     basement_wall,           !- Name
    760     M10 200mm concrete block basement wall;  !- Outside Layer
    761 
    762 Construction,
    763     int_wood_floor,          !- Name
    764     AC02 Acoustic Ceiling,   !- Outside Layer
    765     G02 16mm plywood,        !- Layer 2
    766     CP02 CARPET PAD;         !- Layer 3
    767 
    768 Construction,
    769     ext_soffit_floor,        !- Name
    770     G02 16mm plywood;        !- Outside Layer
    771 
    772 Construction,
    773     nonres_roof,             !- Name
    774     F13 Built-up roofing,    !- Outside Layer
    775     Nonres_Roof_Insulation,  !- Layer 2
    776     F08 Metal surface;       !- Layer 3
    777 
    778 Construction,
    779     res_roof,                !- Name
    780     F13 Built-up roofing,    !- Outside Layer
    781     Res_Roof_Insulation,     !- Layer 2
    782     F08 Metal surface;       !- Layer 3
    783 
    784 Construction,
    785     semiheated_roof,         !- Name
    786     F13 Built-up roofing,    !- Outside Layer
    787     Semiheated_Roof_Insulation,  !- Layer 2
    788     F08 Metal surface;       !- Layer 3
    789 
    790 Construction,
    791     nonres_ext_wall,         !- Name
    792     F07 25mm stucco,         !- Outside Layer
    793     G01 16mm gypsum board,   !- Layer 2
    794     Nonres_Exterior_Wall_Insulation,  !- Layer 3
    795     G01 16mm gypsum board;   !- Layer 4
    796 
    797 Construction,
    798     res_ext_wall,            !- Name
    799     F07 25mm stucco,         !- Outside Layer
    800     G01 16mm gypsum board,   !- Layer 2
    801     Res_Exterior_Wall_Insulation,  !- Layer 3
    802     G01 16mm gypsum board;   !- Layer 4
    803 
    804 Construction,
    805     semiheated_ext_wall,     !- Name
    806     F07 25mm stucco,         !- Outside Layer
    807     G01 16mm gypsum board,   !- Layer 2
    808     Semiheated_Exterior_Wall_Insulation,  !- Layer 3
    809     G01 16mm gypsum board;   !- Layer 4
    810 
    811 Construction,
    812     nonres_floor,            !- Name
    813     Nonres_Floor_Insulation, !- Outside Layer
    814     100mm Normalweight concrete floor,  !- Layer 2
    815     CP02 CARPET PAD;         !- Layer 3
    816 
    817 Construction,
    818     res_floor,               !- Name
    819     Res_Floor_Insulation,    !- Outside Layer
    820     100mm Normalweight concrete floor,  !- Layer 2
    821     CP02 CARPET PAD;         !- Layer 3
    822 
    823 Construction,
    824     semiheated_floor,        !- Name
    825     Semiheated_Floor_Insulation,  !- Outside Layer
    826     100mm Normalweight concrete floor,  !- Layer 2
    827     CP02 CARPET PAD;         !- Layer 3
    828 
    829 Construction,
    830     nonres_floor_ceiling,    !- Name
    831     CP02 CARPET PAD,         !- Outside Layer
    832     100mm Normalweight concrete floor,  !- Layer 2
    833     Nonres_Floor_Insulation; !- Layer 3
    834 
    835 Construction,
    836     res_floor_ceiling,       !- Name
    837     CP02 CARPET PAD,         !- Outside Layer
    838     100mm Normalweight concrete floor,  !- Layer 2
    839     Res_Floor_Insulation;    !- Layer 3
    840 
    841 Construction,
    842     semiheated_floor_ceiling,!- Name
    843     CP02 CARPET PAD,         !- Outside Layer
    844     100mm Normalweight concrete floor,  !- Layer 2
    845     Semiheated_Floor_Insulation;  !- Layer 3
    846 
    847 ! ------------------------------------------------------------------
    848 ! $Id: WindowsLibrary_v30.idf,v 1.6 2010/10/16 00:03:25 atha577 Exp $
    849 ! $Log: WindowsLibrary_v30.idf,v $
    850 ! Revision 1.6  2010/10/16 00:03:25  atha577
    851 ! Deleted bb skylight constructions. Added them to opaquelibraryscript.
    852 !
    853 ! Revision 1.5  2010/10/15 23:31:07  atha577
    854 ! Added addendum bb skylight constructions.
    855 !
    856 ! Revision 1.4  2010/10/14 22:53:47  atha577
    857 ! Added new skylight constructions for bb
    858 !
    859 ! Revision 1.3  2010/05/19 20:10:16  atha577
    860 ! *** empty log message ***
    861 !
    862 ! Revision 1.2  2010/05/19 20:08:49  atha577
    863 ! added bb constructions.
    864 !
    865 !
    866 ! Revision 1.1  2010/01/20 21:58:41  d3l143
    867 ! Initial revision
    868 ! Revised 5/19/2010: Added new constructions for bb from E+ window
    869 !       construction library
      ***** Tabs eliminated from above line
    870 !
    871 ! ------------------------------------------------------------------
    872 !
    873 WindowMaterial:Glazing,
    874     GREEN 6MM,               !- Name
    875     SpectralAverage,         !- Optical Data Type
    876     ,                        !- Window Glass Spectral Data Set Name
    877     0.006,                   !- Thickness {m}
    878     0.487,                   !- Solar Transmittance at Normal Incidence
    879     0.056,                   !- Front Side Solar Reflectance at Normal Incidence
    880     0.056,                   !- Back Side Solar Reflectance at Normal Incidence
    881     0.749,                   !- Visible Transmittance at Normal Incidence
    882     0.070,                   !- Front Side Visible Reflectance at Normal Incidence
    883     0.070,                   !- Back Side Visible Reflectance at Normal Incidence
    884     0.0,                     !- Infrared Transmittance at Normal Incidence
    885     0.84,                    !- Front Side Infrared Hemispherical Emissivity
    886     0.84,                    !- Back Side Infrared Hemispherical Emissivity
    887     0.9;                     !- Conductivity {W/m-K}
    888 
    889 ! ID 221
    890 WindowMaterial:Glazing,
    891     REF B CLEAR HI 6MM,      !- Name
    892     SpectralAverage,         !- Optical Data Type
    893     ,                        !- Window Glass Spectral Data Set Name
    894     0.006,                   !- Thickness {m}
    895     0.240,                   !- Solar Transmittance at Normal Incidence
    896     0.160,                   !- Front Side Solar Reflectance at Normal Incidence
    897     0.320,                   !- Back Side Solar Reflectance at Normal Incidence
    898     0.300,                   !- Visible Transmittance at Normal Incidence
    899     0.160,                   !- Front Side Visible Reflectance at Normal Incidence
    900     0.290,                   !- Back Side Visible Reflectance at Normal Incidence
    901     0.0,                     !- Infrared Transmittance at Normal Incidence
    902     0.84,                    !- Front Side Infrared Hemispherical Emissivity
    903     0.60,                    !- Back Side Infrared Hemispherical Emissivity
    904     0.9;                     !- Conductivity {W/m-K}
    905 
    906 WindowMaterial:Glazing,
    907     REF C CLEAR HI 6MM,      !- Name
    908     SpectralAverage,         !- Optical Data Type
    909     ,                        !- Window Glass Spectral Data Set Name
    910     0.006,                   !- Thickness {m}
    911     0.200,                   !- Solar Transmittance at Normal Incidence
    912     0.160,                   !- Front Side Solar Reflectance at Normal Incidence
    913     0.390,                   !- Back Side Solar Reflectance at Normal Incidence
    914     0.220,                   !- Visible Transmittance at Normal Incidence
    915     0.170,                   !- Front Side Visible Reflectance at Normal Incidence
    916     0.350,                   !- Back Side Visible Reflectance at Normal Incidence
    917     0.0,                     !- Infrared Transmittance at Normal Incidence
    918     0.84,                    !- Front Side Infrared Hemispherical Emissivity
    919     0.55,                    !- Back Side Infrared Hemispherical Emissivity
    920     0.9;                     !- Conductivity {W/m-K}
    921 
    922 WindowMaterial:Glazing,
    923     ECREF-1 COLORED 6MM,     !- Name
    924     SpectralAverage,         !- Optical Data Type
    925     ,                        !- Window Glass Spectral Data Set Name
    926     0.006,                   !- Thickness {m}
    927     0.099,                   !- Solar Transmittance at Normal Incidence
    928     0.219,                   !- Front Side Solar Reflectance at Normal Incidence
    929     0.219,                   !- Back Side Solar Reflectance at Normal Incidence
    930     0.155,                   !- Visible Transmittance at Normal Incidence
    931     0.073,                   !- Front Side Visible Reflectance at Normal Incidence
    932     0.073,                   !- Back Side Visible Reflectance at Normal Incidence
    933     0.0,                     !- Infrared Transmittance at Normal Incidence
    934     0.84,                    !- Front Side Infrared Hemispherical Emissivity
    935     0.84,                    !- Back Side Infrared Hemispherical Emissivity
    936     0.9;                     !- Conductivity {W/m-K}
    937 
    938 WindowMaterial:Glazing,
    939     REF B TINT MID 6MM,      !- Name
    940     SpectralAverage,         !- Optical Data Type
    941     ,                        !- Window Glass Spectral Data Set Name
    942     0.006,                   !- Thickness {m}
    943     0.100,                   !- Solar Transmittance at Normal Incidence
    944     0.110,                   !- Front Side Solar Reflectance at Normal Incidence
    945     0.410,                   !- Back Side Solar Reflectance at Normal Incidence
    946     0.130,                   !- Visible Transmittance at Normal Incidence
    947     0.100,                   !- Front Side Visible Reflectance at Normal Incidence
    948     0.320,                   !- Back Side Visible Reflectance at Normal Incidence
    949     0.0,                     !- Infrared Transmittance at Normal Incidence
    950     0.84,                    !- Front Side Infrared Hemispherical Emissivity
    951     0.45,                    !- Back Side Infrared Hemispherical Emissivity
    952     0.9;                     !- Conductivity {W/m-K}
    953 
    954 WindowMaterial:Glazing,
    955     CLEAR 6MM,               !- Name
    956     SpectralAverage,         !- Optical Data Type
    957     ,                        !- Window Glass Spectral Data Set Name
    958     0.006,                   !- Thickness {m}
    959     0.775,                   !- Solar Transmittance at Normal Incidence
    960     0.071,                   !- Front Side Solar Reflectance at Normal Incidence
    961     0.071,                   !- Back Side Solar Reflectance at Normal Incidence
    962     0.881,                   !- Visible Transmittance at Normal Incidence
    963     0.080,                   !- Front Side Visible Reflectance at Normal Incidence
    964     0.080,                   !- Back Side Visible Reflectance at Normal Incidence
    965     0.0,                     !- Infrared Transmittance at Normal Incidence
    966     0.84,                    !- Front Side Infrared Hemispherical Emissivity
    967     0.84,                    !- Back Side Infrared Hemispherical Emissivity
    968     0.9;                     !- Conductivity {W/m-K}
    969 
    970 WindowMaterial:Glazing,
    971     REF D CLEAR 6MM,         !- Name
    972     SpectralAverage,         !- Optical Data Type
    973     ,                        !- Window Glass Spectral Data Set Name
    974     0.006,                   !- Thickness {m}
    975     0.429,                   !- Solar Transmittance at Normal Incidence
    976     0.308,                   !- Front Side Solar Reflectance at Normal Incidence
    977     0.379,                   !- Back Side Solar Reflectance at Normal Incidence
    978     0.334,                   !- Visible Transmittance at Normal Incidence
    979     0.453,                   !- Front Side Visible Reflectance at Normal Incidence
    980     0.505,                   !- Back Side Visible Reflectance at Normal Incidence
    981     0.0,                     !- Infrared Transmittance at Normal Incidence
    982     0.84,                    !- Front Side Infrared Hemispherical Emissivity
    983     0.82,                    !- Back Side Infrared Hemispherical Emissivity
    984     0.9;                     !- Conductivity {W/m-K}
    985 
    986 WindowMaterial:Glazing,
    987     BLUE 6MM,                !- Name
    988     SpectralAverage,         !- Optical Data Type
    989     ,                        !- Window Glass Spectral Data Set Name
    990     0.006,                   !- Thickness {m}
    991     0.480,                   !- Solar Transmittance at Normal Incidence
    992     0.050,                   !- Front Side Solar Reflectance at Normal Incidence
    993     0.050,                   !- Back Side Solar Reflectance at Normal Incidence
    994     0.570,                   !- Visible Transmittance at Normal Incidence
    995     0.060,                   !- Front Side Visible Reflectance at Normal Incidence
    996     0.060,                   !- Back Side Visible Reflectance at Normal Incidence
    997     0.0,                     !- Infrared Transmittance at Normal Incidence
    998     0.84,                    !- Front Side Infrared Hemispherical Emissivity
    999     0.84,                    !- Back Side Infrared Hemispherical Emissivity
   1000     0.9;                     !- Conductivity {W/m-K}
   1001 
   1002 WindowMaterial:Glazing,
   1003     GREY 6MM,                !- Name
   1004     SpectralAverage,         !- Optical Data Type
   1005     ,                        !- Window Glass Spectral Data Set Name
   1006     0.006,                   !- Thickness {m}
   1007     0.455,                   !- Solar Transmittance at Normal Incidence
   1008     0.053,                   !- Front Side Solar Reflectance at Normal Incidence
   1009     0.053,                   !- Back Side Solar Reflectance at Normal Incidence
   1010     0.431,                   !- Visible Transmittance at Normal Incidence
   1011     0.052,                   !- Front Side Visible Reflectance at Normal Incidence
   1012     0.052,                   !- Back Side Visible Reflectance at Normal Incidence
   1013     0.0,                     !- Infrared Transmittance at Normal Incidence
   1014     0.84,                    !- Front Side Infrared Hemispherical Emissivity
   1015     0.84,                    !- Back Side Infrared Hemispherical Emissivity
   1016     0.9;                     !- Conductivity {W/m-K}
   1017 
   1018 WindowMaterial:Glazing,
   1019     LoE CLEAR 6MM,           !- Name
   1020     SpectralAverage,         !- Optical Data Type
   1021     ,                        !- Window Glass Spectral Data Set Name
   1022     0.006,                   !- Thickness {m}
   1023     0.600,                   !- Solar Transmittance at Normal Incidence
   1024     0.170,                   !- Front Side Solar Reflectance at Normal Incidence
   1025     0.220,                   !- Back Side Solar Reflectance at Normal Incidence
   1026     0.840,                   !- Visible Transmittance at Normal Incidence
   1027     0.055,                   !- Front Side Visible Reflectance at Normal Incidence
   1028     0.078,                   !- Back Side Visible Reflectance at Normal Incidence
   1029     0.0,                     !- Infrared Transmittance at Normal Incidence
   1030     0.84,                    !- Front Side Infrared Hemispherical Emissivity
   1031     0.10,                    !- Back Side Infrared Hemispherical Emissivity
   1032     0.9;                     !- Conductivity {W/m-K}
   1033 
   1034 ! ID 451
   1035 WindowMaterial:Glazing,
   1036     LoE TINT 6MM,            !- Name
   1037     SpectralAverage,         !- Optical Data Type
   1038     ,                        !- Window Glass Spectral Data Set Name
   1039     0.006,                   !- Thickness {m}
   1040     0.360,                   !- Solar Transmittance at Normal Incidence
   1041     0.093,                   !- Front Side Solar Reflectance at Normal Incidence
   1042     0.200,                   !- Back Side Solar Reflectance at Normal Incidence
   1043     0.500,                   !- Visible Transmittance at Normal Incidence
   1044     0.035,                   !- Front Side Visible Reflectance at Normal Incidence
   1045     0.054,                   !- Back Side Visible Reflectance at Normal Incidence
   1046     0.0,                     !- Infrared Transmittance at Normal Incidence
   1047     0.84,                    !- Front Side Infrared Hemispherical Emissivity
   1048     0.10,                    !- Back Side Infrared Hemispherical Emissivity
   1049     0.9;                     !- Conductivity {W/m-K}
   1050 
   1051 ! ID 232
   1052 WindowMaterial:Glazing,
   1053     REF B TINT HI 6MM,       !- Name
   1054     SpectralAverage,         !- Optical Data Type
   1055     ,                        !- Window Glass Spectral Data Set Name
   1056     0.006,                   !- Thickness {m}
   1057     0.150,                   !- Solar Transmittance at Normal Incidence
   1058     0.090,                   !- Front Side Solar Reflectance at Normal Incidence
   1059     0.330,                   !- Back Side Solar Reflectance at Normal Incidence
   1060     0.180,                   !- Visible Transmittance at Normal Incidence
   1061     0.080,                   !- Front Side Visible Reflectance at Normal Incidence
   1062     0.280,                   !- Back Side Visible Reflectance at Normal Incidence
   1063     0.0,                     !- Infrared Transmittance at Normal Incidence
   1064     0.84,                    !- Front Side Infrared Hemispherical Emissivity
   1065     0.60,                    !- Back Side Infrared Hemispherical Emissivity
   1066     0.9;                     !- Conductivity {W/m-K}
   1067 
   1068 ! ID 241
   1069 WindowMaterial:Glazing,
   1070     REF C CLEAR MID 6MM,     !- Name
   1071     SpectralAverage,         !- Optical Data Type
   1072     ,                        !- Window Glass Spectral Data Set Name
   1073     0.006,                   !- Thickness {m}
   1074     0.170,                   !- Solar Transmittance at Normal Incidence
   1075     0.200,                   !- Front Side Solar Reflectance at Normal Incidence
   1076     0.420,                   !- Back Side Solar Reflectance at Normal Incidence
   1077     0.190,                   !- Visible Transmittance at Normal Incidence
   1078     0.210,                   !- Front Side Visible Reflectance at Normal Incidence
   1079     0.380,                   !- Back Side Visible Reflectance at Normal Incidence
   1080     0.0,                     !- Infrared Transmittance at Normal Incidence
   1081     0.84,                    !- Front Side Infrared Hemispherical Emissivity
   1082     0.51,                    !- Back Side Infrared Hemispherical Emissivity
   1083     0.9;                     !- Conductivity {W/m-K}
   1084 
   1085 ! ID 270
   1086 WindowMaterial:Glazing,
   1087     REF D TINT 6MM,          !- Name
   1088     SpectralAverage,         !- Optical Data Type
   1089     ,                        !- Window Glass Spectral Data Set Name
   1090     0.006,                   !- Thickness {m}
   1091     0.300,                   !- Solar Transmittance at Normal Incidence
   1092     0.140,                   !- Front Side Solar Reflectance at Normal Incidence
   1093     0.360,                   !- Back Side Solar Reflectance at Normal Incidence
   1094     0.250,                   !- Visible Transmittance at Normal Incidence
   1095     0.180,                   !- Front Side Visible Reflectance at Normal Incidence
   1096     0.450,                   !- Back Side Visible Reflectance at Normal Incidence
   1097     0.0,                     !- Infrared Transmittance at Normal Incidence
   1098     0.84,                    !- Front Side Infrared Hemispherical Emissivity
   1099     0.82,                    !- Back Side Infrared Hemispherical Emissivity
   1100     0.9;                     !- Conductivity {W/m-K}
   1101 
   1102 ! ID 601
   1103 WindowMaterial:Glazing,
   1104     COATED POLY-77,          !- Name
   1105     SpectralAverage,         !- Optical Data Type
   1106     ,                        !- Window Glass Spectral Data Set Name
   1107     0.00051,                 !- Thickness {m}
   1108     0.504,                   !- Solar Transmittance at Normal Incidence
   1109     0.402,                   !- Front Side Solar Reflectance at Normal Incidence
   1110     0.398,                   !- Back Side Solar Reflectance at Normal Incidence
   1111     0.766,                   !- Visible Transmittance at Normal Incidence
   1112     0.147,                   !- Front Side Visible Reflectance at Normal Incidence
   1113     0.167,                   !- Back Side Visible Reflectance at Normal Incidence
   1114     0.0,                     !- Infrared Transmittance at Normal Incidence
   1115     0.075,                   !- Front Side Infrared Hemispherical Emissivity
   1116     0.720,                   !- Back Side Infrared Hemispherical Emissivity
   1117     0.14;                    !- Conductivity {W/m-K}
   1118 
   1119 ! ID 550
   1120 WindowMaterial:Glazing,
   1121     LoE SPEC SEL TINT 6MM,   !- Name
   1122     SpectralAverage,         !- Optical Data Type
   1123     ,                        !- Window Glass Spectral Data Set Name
   1124     0.006,                   !- Thickness {m}
   1125     0.260,                   !- Solar Transmittance at Normal Incidence
   1126     0.140,                   !- Front Side Solar Reflectance at Normal Incidence
   1127     0.410,                   !- Back Side Solar Reflectance at Normal Incidence
   1128     0.460,                   !- Visible Transmittance at Normal Incidence
   1129     0.060,                   !- Front Side Visible Reflectance at Normal Incidence
   1130     0.040,                   !- Back Side Visible Reflectance at Normal Incidence
   1131     0.0,                     !- Infrared Transmittance at Normal Incidence
   1132     0.84,                    !- Front Side Infrared Hemispherical Emissivity
   1133     0.03,                    !- Back Side Infrared Hemispherical Emissivity
   1134     0.9;                     !- Conductivity {W/m-K}
   1135 
   1136 ! ID 351
   1137 WindowMaterial:Glazing,
   1138     PYR B CLEAR 6MM,         !- Name
   1139     SpectralAverage,         !- Optical Data Type
   1140     ,                        !- Window Glass Spectral Data Set Name
   1141     0.006,                   !- Thickness {m}
   1142     0.680,                   !- Solar Transmittance at Normal Incidence
   1143     0.090,                   !- Front Side Solar Reflectance at Normal Incidence
   1144     0.100,                   !- Back Side Solar Reflectance at Normal Incidence
   1145     0.810,                   !- Visible Transmittance at Normal Incidence
   1146     0.110,                   !- Front Side Visible Reflectance at Normal Incidence
   1147     0.120,                   !- Back Side Visible Reflectance at Normal Incidence
   1148     0.0,                     !- Infrared Transmittance at Normal Incidence
   1149     0.84,                    !- Front Side Infrared Hemispherical Emissivity
   1150     0.20,                    !- Back Side Infrared Hemispherical Emissivity
   1151     0.9;                     !- Conductivity {W/m-K}
   1152 
   1153 ! ID 2
   1154 WindowMaterial:Glazing,
   1155     CLEAR 3MM,               !- Name
   1156     SpectralAverage,         !- Optical Data Type
   1157     ,                        !- Window Glass Spectral Data Set Name
   1158     0.003,                   !- Thickness {m}
   1159     0.837,                   !- Solar Transmittance at Normal Incidence
   1160     0.075,                   !- Front Side Solar Reflectance at Normal Incidence
   1161     0.075,                   !- Back Side Solar Reflectance at Normal Incidence
   1162     0.898,                   !- Visible Transmittance at Normal Incidence
   1163     0.081,                   !- Front Side Visible Reflectance at Normal Incidence
   1164     0.081,                   !- Back Side Visible Reflectance at Normal Incidence
   1165     0.0,                     !- Infrared Transmittance at Normal Incidence
   1166     0.84,                    !- Front Side Infrared Hemispherical Emissivity
   1167     0.84,                    !- Back Side Infrared Hemispherical Emissivity
   1168     0.9;                     !- Conductivity {W/m-K}
   1169 
   1170 ! ID 220
   1171 WindowMaterial:Glazing,
   1172     REF B CLEAR LO 6MM,      !- Name
   1173     SpectralAverage,         !- Optical Data Type
   1174     ,                        !- Window Glass Spectral Data Set Name
   1175     0.006,                   !- Thickness {m}
   1176     0.150,                   !- Solar Transmittance at Normal Incidence
   1177     0.220,                   !- Front Side Solar Reflectance at Normal Incidence
   1178     0.380,                   !- Back Side Solar Reflectance at Normal Incidence
   1179     0.200,                   !- Visible Transmittance at Normal Incidence
   1180     0.230,                   !- Front Side Visible Reflectance at Normal Incidence
   1181     0.330,                   !- Back Side Visible Reflectance at Normal Incidence
   1182     0.0,                     !- Infrared Transmittance at Normal Incidence
   1183     0.84,                    !- Front Side Infrared Hemispherical Emissivity
   1184     0.58,                    !- Back Side Infrared Hemispherical Emissivity
   1185     0.9;                     !- Conductivity {W/m-K}
   1186 
   1187 ! ID 200
   1188 WindowMaterial:Glazing,
   1189     REF A CLEAR LO 6MM,      !- Name
   1190     SpectralAverage,         !- Optical Data Type
   1191     ,                        !- Window Glass Spectral Data Set Name
   1192     0.006,                   !- Thickness {m}
   1193     0.066,                   !- Solar Transmittance at Normal Incidence
   1194     0.341,                   !- Front Side Solar Reflectance at Normal Incidence
   1195     0.493,                   !- Back Side Solar Reflectance at Normal Incidence
   1196     0.080,                   !- Visible Transmittance at Normal Incidence
   1197     0.410,                   !- Front Side Visible Reflectance at Normal Incidence
   1198     0.370,                   !- Back Side Visible Reflectance at Normal Incidence
   1199     0.0,                     !- Infrared Transmittance at Normal Incidence
   1200     0.84,                    !- Front Side Infrared Hemispherical Emissivity
   1201     0.40,                    !- Back Side Infrared Hemispherical Emissivity
   1202     0.9;                     !- Conductivity {W/m-K}
   1203 
   1204 ! ID 11
   1205 WindowMaterial:Glazing,
   1206     GREEN 3MM,               !- Name
   1207     SpectralAverage,         !- Optical Data Type
   1208     ,                        !- Window Glass Spectral Data Set Name
   1209     0.003,                   !- Thickness {m}
   1210     0.635,                   !- Solar Transmittance at Normal Incidence
   1211     0.063,                   !- Front Side Solar Reflectance at Normal Incidence
   1212     0.063,                   !- Back Side Solar Reflectance at Normal Incidence
   1213     0.822,                   !- Visible Transmittance at Normal Incidence
   1214     0.075,                   !- Front Side Visible Reflectance at Normal Incidence
   1215     0.075,                   !- Back Side Visible Reflectance at Normal Incidence
   1216     0.0,                     !- Infrared Transmittance at Normal Incidence
   1217     0.84,                    !- Front Side Infrared Hemispherical Emissivity
   1218     0.84,                    !- Back Side Infrared Hemispherical Emissivity
   1219     0.9;                     !- Conductivity {W/m-K}
   1220 
   1221 ! ID 705
   1222 WindowMaterial:Glazing,
   1223     ECABS-2 COLORED 6MM,     !- Name
   1224     SpectralAverage,         !- Optical Data Type
   1225     ,                        !- Window Glass Spectral Data Set Name
   1226     0.006,                   !- Thickness {m}
   1227     0.111,                   !- Solar Transmittance at Normal Incidence
   1228     0.179,                   !- Front Side Solar Reflectance at Normal Incidence
   1229     0.179,                   !- Back Side Solar Reflectance at Normal Incidence
   1230     0.128,                   !- Visible Transmittance at Normal Incidence
   1231     0.081,                   !- Front Side Visible Reflectance at Normal Incidence
   1232     0.081,                   !- Back Side Visible Reflectance at Normal Incidence
   1233     0.0,                     !- Infrared Transmittance at Normal Incidence
   1234     0.84,                    !- Front Side Infrared Hemispherical Emissivity
   1235     0.10,                    !- Back Side Infrared Hemispherical Emissivity
   1236     0.9;                     !- Conductivity {W/m-K}
   1237 
   1238 ! ID 603
   1239 WindowMaterial:Glazing,
   1240     COATED POLY-55,          !- Name
   1241     SpectralAverage,         !- Optical Data Type
   1242     ,                        !- Window Glass Spectral Data Set Name
   1243     0.00051,                 !- Thickness {m}
   1244     0.320,                   !- Solar Transmittance at Normal Incidence
   1245     0.582,                   !- Front Side Solar Reflectance at Normal Incidence
   1246     0.593,                   !- Back Side Solar Reflectance at Normal Incidence
   1247     0.551,                   !- Visible Transmittance at Normal Incidence
   1248     0.336,                   !- Front Side Visible Reflectance at Normal Incidence
   1249     0.375,                   !- Back Side Visible Reflectance at Normal Incidence
   1250     0.0,                     !- Infrared Transmittance at Normal Incidence
   1251     0.046,                   !- Front Side Infrared Hemispherical Emissivity
   1252     0.720,                   !- Back Side Infrared Hemispherical Emissivity
   1253     0.14;                    !- Conductivity {W/m-K}
   1254 
   1255 ! ID 707
   1256 WindowMaterial:Glazing,
   1257     ECREF-2 COLORED 6MM,     !- Name
   1258     SpectralAverage,         !- Optical Data Type
   1259     ,                        !- Window Glass Spectral Data Set Name
   1260     0.006,                   !- Thickness {m}
   1261     0.099,                   !- Solar Transmittance at Normal Incidence
   1262     0.219,                   !- Front Side Solar Reflectance at Normal Incidence
   1263     0.219,                   !- Back Side Solar Reflectance at Normal Incidence
   1264     0.155,                   !- Visible Transmittance at Normal Incidence
   1265     0.073,                   !- Front Side Visible Reflectance at Normal Incidence
   1266     0.073,                   !- Back Side Visible Reflectance at Normal Incidence
   1267     0.0,                     !- Infrared Transmittance at Normal Incidence
   1268     0.84,                    !- Front Side Infrared Hemispherical Emissivity
   1269     0.10,                    !- Back Side Infrared Hemispherical Emissivity
   1270     0.9;                     !- Conductivity {W/m-K}
   1271 
   1272 !
   1273 WindowMaterial:Glazing,
   1274     LoE SPEC SEL CLEAR 6MM Rev,  !- Name
   1275     SpectralAverage,         !- Optical Data Type
   1276     ,                        !- Window Glass Spectral Data Set Name
   1277     0.006,                   !- Thickness {m}
   1278     0.430,                   !- Solar Transmittance at Normal Incidence
   1279     0.420,                   !- Front Side Solar Reflectance at Normal Incidence
   1280     0.300,                   !- Back Side Solar Reflectance at Normal Incidence
   1281     0.770,                   !- Visible Transmittance at Normal Incidence
   1282     0.060,                   !- Front Side Visible Reflectance at Normal Incidence
   1283     0.070,                   !- Back Side Visible Reflectance at Normal Incidence
   1284     0.0,                     !- Infrared Transmittance at Normal Incidence
   1285     0.03,                    !- Front Side Infrared Hemispherical Emissivity
   1286     0.84,                    !- Back Side Infrared Hemispherical Emissivity
   1287     0.9;                     !- Conductivity {W/m-K}
   1288 
   1289 ! ID 6
   1290 WindowMaterial:Glazing,
   1291     BRONZE 6MM,              !- Name
   1292     SpectralAverage,         !- Optical Data Type
   1293     ,                        !- Window Glass Spectral Data Set Name
   1294     0.006,                   !- Thickness {m}
   1295     0.482,                   !- Solar Transmittance at Normal Incidence
   1296     0.054,                   !- Front Side Solar Reflectance at Normal Incidence
   1297     0.054,                   !- Back Side Solar Reflectance at Normal Incidence
   1298     0.534,                   !- Visible Transmittance at Normal Incidence
   1299     0.057,                   !- Front Side Visible Reflectance at Normal Incidence
   1300     0.057,                   !- Back Side Visible Reflectance at Normal Incidence
   1301     0.0,                     !- Infrared Transmittance at Normal Incidence
   1302     0.84,                    !- Front Side Infrared Hemispherical Emissivity
   1303     0.84,                    !- Back Side Infrared Hemispherical Emissivity
   1304     0.9;                     !- Conductivity {W/m-K}
   1305 
   1306 ! ID 211
   1307 WindowMaterial:Glazing,
   1308     REF A TINT MID 6MM,      !- Name
   1309     SpectralAverage,         !- Optical Data Type
   1310     ,                        !- Window Glass Spectral Data Set Name
   1311     0.006,                   !- Thickness {m}
   1312     0.060,                   !- Solar Transmittance at Normal Incidence
   1313     0.130,                   !- Front Side Solar Reflectance at Normal Incidence
   1314     0.420,                   !- Back Side Solar Reflectance at Normal Incidence
   1315     0.090,                   !- Visible Transmittance at Normal Incidence
   1316     0.140,                   !- Front Side Visible Reflectance at Normal Incidence
   1317     0.350,                   !- Back Side Visible Reflectance at Normal Incidence
   1318     0.0,                     !- Infrared Transmittance at Normal Incidence
   1319     0.84,                    !- Front Side Infrared Hemispherical Emissivity
   1320     0.47,                    !- Back Side Infrared Hemispherical Emissivity
   1321     0.9;                     !- Conductivity {W/m-K}
   1322 
   1323 WindowMaterial:Glazing,
   1324     Theoretical Glass 297,   !- Name
   1325     SpectralAverage,         !- Optical Data Type
   1326     ,                        !- Window Glass Spectral Data Set Name
   1327     0.003,                   !- Thickness {m}
   1328     0.375039,                !- Solar Transmittance at Normal Incidence
   1329     0.574961,                !- Front Side Solar Reflectance at Normal Incidence
   1330     0.574961,                !- Back Side Solar Reflectance at Normal Incidence
   1331     0.529698,                !- Visible Transmittance at Normal Incidence
   1332     0.420302,                !- Front Side Visible Reflectance at Normal Incidence
   1333     0.420302,                !- Back Side Visible Reflectance at Normal Incidence
   1334     0,                       !- Infrared Transmittance at Normal Incidence
   1335     0.9,                     !- Front Side Infrared Hemispherical Emissivity
   1336     0.9,                     !- Back Side Infrared Hemispherical Emissivity
   1337     0.0103561;               !- Conductivity {W/m-K}
   1338 
   1339 WindowMaterial:Glazing,
   1340     Theoretical Glass 347,   !- Name
   1341     SpectralAverage,         !- Optical Data Type
   1342     ,                        !- Window Glass Spectral Data Set Name
   1343     0.003,                   !- Thickness {m}
   1344     0.315861,                !- Solar Transmittance at Normal Incidence
   1345     0.634139,                !- Front Side Solar Reflectance at Normal Incidence
   1346     0.634139,                !- Back Side Solar Reflectance at Normal Incidence
   1347     0.479911,                !- Visible Transmittance at Normal Incidence
   1348     0.470089,                !- Front Side Visible Reflectance at Normal Incidence
   1349     0.470089,                !- Back Side Visible Reflectance at Normal Incidence
   1350     0,                       !- Infrared Transmittance at Normal Incidence
   1351     0.9,                     !- Front Side Infrared Hemispherical Emissivity
   1352     0.9,                     !- Back Side Infrared Hemispherical Emissivity
   1353     0.010358;                !- Conductivity {W/m-K}
   1354 
   1355 WindowMaterial:Gas,
   1356     AIR 6MM,                 !- Name
   1357     Air,                     !- Gas Type
   1358     0.0063;                  !- Thickness {m}
   1359 
   1360 WindowMaterial:Gas,
   1361     AIR 13MM,                !- Name
   1362     Air,                     !- Gas Type
   1363     0.0127;                  !- Thickness {m}
   1364 
   1365 WindowMaterial:Gas,
   1366     ARGON 13MM,              !- Name
   1367     Argon,                   !- Gas Type
   1368     0.0127;                  !- Thickness {m}
   1369 
   1370 !    Sgl Green 6mm,           !- Name
   1371 Construction,
   1372     Window_U_1.22_SHGC_0.61, !- Name
   1373     GREEN 6MM;               !- Outside Layer
   1374 
   1375 !    Sgl Ref-B-H Clr 6mm,     !- Name
   1376 Construction,
   1377     Window_U_1.22_SHGC_0.39, !- Name
   1378     REF B CLEAR HI 6MM;      !- Outside Layer
   1379 
   1380 !    Sgl Ref-C-H Clr 6mm,     !- Name
   1381 Construction,
   1382     Window_U_1.22_SHGC_0.34, !- Name
   1383     REF C CLEAR HI 6MM;      !- Outside Layer
   1384 
   1385 !    Sgl Elec Ref Colored 6mm,!- Name
   1386 Construction,
   1387     Window_U_1.22_SHGC_0.25, !- Name
   1388     ECREF-1 COLORED 6MM;     !- Outside Layer
   1389 
   1390 !    Sgl Ref-B-M Tint 6mm,    !- Name
   1391 Construction,
   1392     Window_U_0.72_SHGC_0.25, !- Name
   1393     REF B TINT MID 6MM;      !- Outside Layer
   1394 
   1395 !    Dbl Ref-D Clr 6mm/6mm Air,  !- Name
   1396 Construction,
   1397     Window_U_0.62_SHGC_0.39, !- Name
   1398     REF D CLEAR 6MM,         !- Outside Layer
   1399     AIR 6MM,                 !- Layer 2
   1400     CLEAR 6MM;               !- Layer 3
   1401 
   1402 !    Dbl Ref-D Clr 6mm/6mm Air,  !- Name
   1403 Construction,
   1404     Window_U_0.57_SHGC_0.39, !- Name
   1405     REF D CLEAR 6MM,         !- Outside Layer
   1406     AIR 6MM,                 !- Layer 2
   1407     CLEAR 6MM;               !- Layer 3
   1408 
   1409 !    Dbl Ref-C-H Clr 6mm/6mm Air,  !- Name
   1410 Construction,
   1411     Window_U_0.65_SHGC_0.25, !- Name
   1412     REF C CLEAR HI 6MM,      !- Outside Layer
   1413     AIR 6MM,                 !- Layer 2
   1414     CLEAR 6MM;               !- Layer 3
   1415 
   1416 !    Dbl Ref-C-H Clr 6mm/6mm Air,  !- Name
   1417 Construction,
   1418     Window_U_0.62_SHGC_0.25, !- Name
   1419     REF C CLEAR HI 6MM,      !- Outside Layer
   1420     AIR 6MM,                 !- Layer 2
   1421     CLEAR 6MM;               !- Layer 3
   1422 
   1423 !    Dbl Ref-C-H Clr 6mm/6mm Air,  !- Name
   1424 Construction,
   1425     Window_U_0.57_SHGC_0.25, !- Name
   1426     REF C CLEAR HI 6MM,      !- Outside Layer
   1427     AIR 6MM,                 !- Layer 2
   1428     CLEAR 6MM;               !- Layer 3
   1429 
   1430 !    Dbl Blue 6mm/6mm Air,    !- Name
   1431 Construction,
   1432     Window_U_0.62_SHGC_0.49, !- Name
   1433     BLUE 6MM,                !- Outside Layer
   1434     AIR 6MM,                 !- Layer 2
   1435     CLEAR 6MM;               !- Layer 3
   1436 
   1437 !    Dbl Blue 6mm/6mm Air,    !- Name
   1438 Construction,
   1439     Window_U_0.57_SHGC_0.49, !- Name
   1440     BLUE 6MM,                !- Outside Layer
   1441     AIR 6MM,                 !- Layer 2
   1442     CLEAR 6MM;               !- Layer 3
   1443 
   1444 !    Dbl Ref-D Clr 6mm/13mm Air,  !- Name
   1445 Construction,
   1446     Window_U_0.52_SHGC_0.40, !- Name
   1447     REF D CLEAR 6MM,         !- Outside Layer
   1448     AIR 13MM,                !- Layer 2
   1449     CLEAR 6MM;               !- Layer 3
   1450 
   1451 !    Dbl Ref-D Clr 6mm/13mm Air,  !- Name
   1452 Construction,
   1453     Window_U_0.48_SHGC_0.40, !- Name
   1454     REF D CLEAR 6MM,         !- Outside Layer
   1455     AIR 13MM,                !- Layer 2
   1456     CLEAR 6MM;               !- Layer 3
   1457 
   1458 !    Dbl Ref-D Clr 6mm/13mm Arg,  !- Name
   1459 Construction,
   1460     Window_U_0.42_SHGC_0.45, !- Name
   1461     REF D CLEAR 6MM,         !- Outside Layer
   1462     ARGON 13MM,              !- Layer 2
   1463     CLEAR 6MM;               !- Layer 3
   1464 
   1465 !    Dbl Grey 6mm/13mm Air,   !- Name
   1466 Construction,
   1467     Window_U_0.46_SHGC_0.45, !- Name
   1468     GREY 6MM,                !- Outside Layer
   1469     AIR 13MM,                !- Layer 2
   1470     CLEAR 6MM;               !- Layer 3
   1471 
   1472 !    Dbl LoE (e2=.1) Tint 6mm/6mm Air,  !- Name
   1473 Construction,
   1474     Window_U_0.42_SHGC_0.40, !- Name
   1475     LoE TINT 6MM,            !- Outside Layer
   1476     AIR 6MM,                 !- Layer 2
   1477     CLEAR 6MM;               !- Layer 3
   1478 
   1479 !    Dbl Ref-B-H Clr 6mm/13mm Air,  !- Name
   1480 Construction,
   1481     Window_U_0.43_SHGC_0.26, !- Name
   1482     REF B CLEAR HI 6MM,      !- Outside Layer
   1483     AIR 13MM,                !- Layer 2
   1484     CLEAR 6MM;               !- Layer 3
   1485 
   1486 !    Dbl Ref-B-H Clr 6mm/13mm Air,  !- Name
   1487 Construction,
   1488     Window_U_0.44_SHGC_0.26, !- Name
   1489     REF B CLEAR HI 6MM,      !- Outside Layer
   1490     AIR 13MM,                !- Layer 2
   1491     CLEAR 6MM;               !- Layer 3
   1492 
   1493 !    Dbl LoE (e2=.1) Tint 6mm/6mm Air,  !- Name
   1494 Construction,
   1495     Window_U_0.42_SHGC_0.35, !- Name
   1496     LoE TINT 6MM,            !- Outside Layer
[...]
   9990     Perimeter_top_ZN_3,      !- Zone 4 Name
   9991     CM DSOA Perimeter_top_ZN_3,  !- Design Specification Outdoor Air Object Name 4
   9992     CM DSZAD Perimeter_top_ZN_3,  !- Design Specification Zone Air Distribution Object Name 4
   9993     Perimeter_top_ZN_4,      !- Zone 5 Name
   9994     CM DSOA Perimeter_top_ZN_4,  !- Design Specification Outdoor Air Object Name 5
   9995     CM DSZAD Perimeter_top_ZN_4;  !- Design Specification Zone Air Distribution Object Name 5
   9996 
   9997 DesignSpecification:ZoneAirDistribution,
   9998     CM DSZAD Core_top,       !- Name
   9999     1,                       !- Zone Air Distribution Effectiveness in Cooling Mode {dimensionless}
  10000     1;                       !- Zone Air Distribution Effectiveness in Heating Mode {dimensionless}
  10001 
  10002 DesignSpecification:ZoneAirDistribution,
  10003     CM DSZAD Perimeter_top_ZN_1,  !- Name
  10004     1,                       !- Zone Air Distribution Effectiveness in Cooling Mode {dimensionless}
  10005     1;                       !- Zone Air Distribution Effectiveness in Heating Mode {dimensionless}
  10006 
  10007 DesignSpecification:ZoneAirDistribution,
  10008     CM DSZAD Perimeter_top_ZN_2,  !- Name
  10009     1,                       !- Zone Air Distribution Effectiveness in Cooling Mode {dimensionless}
  10010     1;                       !- Zone Air Distribution Effectiveness in Heating Mode {dimensionless}
  10011 
  10012 DesignSpecification:ZoneAirDistribution,
  10013     CM DSZAD Perimeter_top_ZN_3,  !- Name
  10014     1,                       !- Zone Air Distribution Effectiveness in Cooling Mode {dimensionless}
  10015     1;                       !- Zone Air Distribution Effectiveness in Heating Mode {dimensionless}
  10016 
  10017 DesignSpecification:ZoneAirDistribution,
  10018     CM DSZAD Perimeter_top_ZN_4,  !- Name
  10019     1,                       !- Zone Air Distribution Effectiveness in Cooling Mode {dimensionless}
  10020     1;                       !- Zone Air Distribution Effectiveness in Heating Mode {dimensionless}
  10021 
  10022 DesignSpecification:OutdoorAir,
  10023     CM DSOA Core_top,        !- Name
  10024     Sum,                     !- Outdoor Air Method
  10025     0.00000001,              !- Outdoor Air Flow per Person {m3/s-person}
  10026     0.000431773;             !- Outdoor Air Flow per Zone Floor Area {m3/s-m2}
  10027 
  10028 DesignSpecification:OutdoorAir,
  10029     CM DSOA Perimeter_top_ZN_1,  !- Name
  10030     Sum,                     !- Outdoor Air Method
  10031     0.00000001,              !- Outdoor Air Flow per Person {m3/s-person}
  10032     0.000431773;             !- Outdoor Air Flow per Zone Floor Area {m3/s-m2}
  10033 
  10034 DesignSpecification:OutdoorAir,
  10035     CM DSOA Perimeter_top_ZN_2,  !- Name
  10036     Sum,                     !- Outdoor Air Method
  10037     0.00000001,              !- Outdoor Air Flow per Person {m3/s-person}
  10038     0.000431773;             !- Outdoor Air Flow per Zone Floor Area {m3/s-m2}
  10039 
  10040 DesignSpecification:OutdoorAir,
  10041     CM DSOA Perimeter_top_ZN_3,  !- Name
  10042     Sum,                     !- Outdoor Air Method
  10043     0.00000001,              !- Outdoor Air Flow per Person {m3/s-person}
  10044     0.000431773;             !- Outdoor Air Flow per Zone Floor Area {m3/s-m2}
  10045 
  10046 DesignSpecification:OutdoorAir,
  10047     CM DSOA Perimeter_top_ZN_4,  !- Name
  10048     Sum,                     !- Outdoor Air Method
  10049     0.00000001,              !- Outdoor Air Flow per Person {m3/s-person}
  10050     0.000431773;             !- Outdoor Air Flow per Zone Floor Area {m3/s-m2}
  10051 
  10052 Controller:MechanicalVentilation,
  10053     PACU_VAV_MID_DCV,        !- Name
  10054     ALWAYS_ON,               !- Availability Schedule Name
  10055     Yes,                     !- Demand Controlled Ventilation
  10056     VentilationRateProcedure,!- System Outdoor Air Method
  10057     ,                        !- Zone Maximum Outdoor Air Fraction {dimensionless}
  10058     Core_mid,                !- Zone 1 Name
  10059     CM DSOA Core_mid,        !- Design Specification Outdoor Air Object Name 1
  10060     CM DSZAD Core_mid,       !- Design Specification Zone Air Distribution Object Name 1
  10061     Perimeter_mid_ZN_1,      !- Zone 2 Name
  10062     CM DSOA Perimeter_mid_ZN_1,  !- Design Specification Outdoor Air Object Name 2
  10063     CM DSZAD Perimeter_mid_ZN_1,  !- Design Specification Zone Air Distribution Object Name 2
  10064     Perimeter_mid_ZN_2,      !- Zone 3 Name
  10065     CM DSOA Perimeter_mid_ZN_2,  !- Design Specification Outdoor Air Object Name 3
  10066     CM DSZAD Perimeter_mid_ZN_2,  !- Design Specification Zone Air Distribution Object Name 3
  10067     Perimeter_mid_ZN_3,      !- Zone 4 Name
  10068     CM DSOA Perimeter_mid_ZN_3,  !- Design Specification Outdoor Air Object Name 4
  10069     CM DSZAD Perimeter_mid_ZN_3,  !- Design Specification Zone Air Distribution Object Name 4
  10070     Perimeter_mid_ZN_4,      !- Zone 5 Name
  10071     CM DSOA Perimeter_mid_ZN_4,  !- Design Specification Outdoor Air Object Name 5
  10072     CM DSZAD Perimeter_mid_ZN_4;  !- Design Specification Zone Air Distribution Object Name 5
  10073 
  10074 DesignSpecification:ZoneAirDistribution,
  10075     CM DSZAD Core_mid,       !- Name
  10076     1,                       !- Zone Air Distribution Effectiveness in Cooling Mode {dimensionless}
  10077     1;                       !- Zone Air Distribution Effectiveness in Heating Mode {dimensionless}
  10078 
  10079 DesignSpecification:ZoneAirDistribution,
  10080     CM DSZAD Perimeter_mid_ZN_1,  !- Name
  10081     1,                       !- Zone Air Distribution Effectiveness in Cooling Mode {dimensionless}
  10082     1;                       !- Zone Air Distribution Effectiveness in Heating Mode {dimensionless}
  10083 
  10084 DesignSpecification:ZoneAirDistribution,
  10085     CM DSZAD Perimeter_mid_ZN_2,  !- Name
  10086     1,                       !- Zone Air Distribution Effectiveness in Cooling Mode {dimensionless}
  10087     1;                       !- Zone Air Distribution Effectiveness in Heating Mode {dimensionless}
  10088 
  10089 DesignSpecification:ZoneAirDistribution,
  10090     CM DSZAD Perimeter_mid_ZN_3,  !- Name
  10091     1,                       !- Zone Air Distribution Effectiveness in Cooling Mode {dimensionless}
  10092     1;                       !- Zone Air Distribution Effectiveness in Heating Mode {dimensionless}
  10093 
  10094 DesignSpecification:ZoneAirDistribution,
  10095     CM DSZAD Perimeter_mid_ZN_4,  !- Name
  10096     1,                       !- Zone Air Distribution Effectiveness in Cooling Mode {dimensionless}
  10097     1;                       !- Zone Air Distribution Effectiveness in Heating Mode {dimensionless}
  10098 
  10099 DesignSpecification:OutdoorAir,
  10100     CM DSOA Core_mid,        !- Name
  10101     Sum,                     !- Outdoor Air Method
  10102     0.00000001,              !- Outdoor Air Flow per Person {m3/s-person}
  10103     0.000431773;             !- Outdoor Air Flow per Zone Floor Area {m3/s-m2}
  10104 
  10105 DesignSpecification:OutdoorAir,
  10106     CM DSOA Perimeter_mid_ZN_1,  !- Name
  10107     Sum,                     !- Outdoor Air Method
  10108     0.00000001,              !- Outdoor Air Flow per Person {m3/s-person}
  10109     0.000431773;             !- Outdoor Air Flow per Zone Floor Area {m3/s-m2}
  10110 
  10111 DesignSpecification:OutdoorAir,
  10112     CM DSOA Perimeter_mid_ZN_2,  !- Name
  10113     Sum,                     !- Outdoor Air Method
  10114     0.00000001,              !- Outdoor Air Flow per Person {m3/s-person}
  10115     0.000431773;             !- Outdoor Air Flow per Zone Floor Area {m3/s-m2}
  10116 
  10117 DesignSpecification:OutdoorAir,
  10118     CM DSOA Perimeter_mid_ZN_3,  !- Name
  10119     Sum,                     !- Outdoor Air Method
  10120     0.00000001,              !- Outdoor Air Flow per Person {m3/s-person}
  10121     0.000431773;             !- Outdoor Air Flow per Zone Floor Area {m3/s-m2}
  10122 
  10123 DesignSpecification:OutdoorAir,
  10124     CM DSOA Perimeter_mid_ZN_4,  !- Name
  10125     Sum,                     !- Outdoor Air Method
  10126     0.00000001,              !- Outdoor Air Flow per Person {m3/s-person}
  10127     0.000431773;             !- Outdoor Air Flow per Zone Floor Area {m3/s-m2}
  10128 
  10129 EnergyManagementSystem:Sensor,
  10130     Facility_Int_LTG,        !- Name
  10131     ,                        !- Output:Variable or Output:Meter Index Key Name
  10132     InteriorLights:Electricity;  !- Output:Variable or Output:Meter Name
  10133 
  10134 EnergyManagementSystem:GlobalVariable,
  10135     Wired_LTG,               !- Erl Variable 1 Name
  10136     ZoneT_Setpoint_Reset_bak;!- Erl Variable 2 Name
  10137 
  10138 EnergyManagementSystem:Program,
  10139     Transformer_Load_Prog,   !- Name
  10140     SET Wired_LTG = Facility_Int_LTG*0.0281;  !- Program Line 1
  10141 
  10142 EnergyManagementSystem:ProgramCallingManager,
  10143     Transformer_Load_Prog_Manager,  !- Name
  10144     AfterPredictorAfterHVACManagers,  !- EnergyPlus Model Calling Point
  10145     Transformer_Load_Prog;   !- Program Name 1
  10146 
  10147 EnergyManagementSystem:OutputVariable,
  10148     Wired_LTG,               !- Name
  10149     Wired_LTG,               !- EMS Variable Name
  10150     Summed,                  !- Type of Data in Variable
  10151     ZoneTimeStep,            !- Update Frequency
  10152     ,                        !- EMS Program or Subroutine Name
  10153     J;                       !- Units
  10154 
  10155 Meter:Custom,
  10156     Wired_LTG_Electricity,   !- Name
  10157     Electricity,             !- Fuel Type
  10158     ,                        !- Key Name 1
  10159     Wired_LTG;               !- Output Variable or Meter Name 1
  10160 
  10161 Meter:CustomDecrement,
  10162     Wired_Int_EQUIP,         !- Name
  10163     Electricity,             !- Fuel Type
  10164     InteriorEquipment:Electricity,  !- Source Meter Name
  10165     Core_bottom_Elevators_Equip,  !- Key Name 1
  10166     Electric Equipment Electric Energy;  !- Output Variable or Meter Name 1
  10167 
  10168 ElectricLoadCenter:Transformer,
  10169     Transformer 1,           !- Name
  10170     Always_On,               !- Availability Schedule Name
  10171     PowerInFromGrid,         !- Transformer Usage
  10172     ,                        !- Zone Name
  10173     ,                        !- Radiative Fraction
  10174     45000,                   !- Rated Capacity {VA}
  10175     3,                       !- Phase
  10176     Aluminum,                !- Conductor Material
  10177     150,                     !- Full Load Temperature Rise {C}
  10178     0.1,                     !- Fraction of Eddy Current Losses
  10179     NominalEfficiency,       !- Performance Input Method
  10180     ,                        !- Rated No Load Loss {W}
  10181     ,                        !- Rated Load Loss {W}
  10182     0.977,                   !- Nameplate Efficiency
  10183     0.35,                    !- Per Unit Load for Nameplate Efficiency
  10184     75,                      !- Reference Temperature for Nameplate Efficiency {C}
  10185     ,                        !- Per Unit Load for Maximum Efficiency
  10186     Yes,                     !- Consider Transformer Loss for Utility Cost
  10187     Wired_LTG_Electricity,   !- Meter 1 Name
  10188     Wired_INT_EQUIP;         !- Meter 2 Name
  10189 
  10190 !
  10191 ! End Addendum O transformers implementation
  10192 !
  10193 EnergyManagementSystem:Sensor,
  10194     OAT,                     !- Name
  10195     Environment,             !- Output:Variable or Output:Meter Index Key Name
  10196     Site Outdoor Air Drybulb Temperature;  !- Output:Variable or Output:Meter Name
  10197 
  10198 EnergyManagementSystem:Actuator,
  10199     CLGSETP_SCH_Actuator,    !- Name
  10200     CLGSETP_SCH_Yes_Optimum, !- Actuated Component Unique Name
  10201     Schedule:Compact,        !- Actuated Component Type
  10202     Schedule Value;          !- Actuated Component Control Type
  10203 
  10204 EnergyManagementSystem:Actuator,
  10205     HTGSETP_SCH_Actuator,    !- Name
  10206     HTGSETP_SCH_Yes_Optimum, !- Actuated Component Unique Name
  10207     Schedule:Compact,        !- Actuated Component Type
  10208     Schedule Value;          !- Actuated Component Control Type
  10209 
  10210 EnergyManagementSystem:ProgramCallingManager,
  10211     OA_BASED_OPTIMUM_START_EMS_Program Manager,  !- Name
  10212     BeginTimestepBeforePredictor,  !- EnergyPlus Model Calling Point
  10213     OA_BASED_OPTIMUM_START_EMS_Program;  !- Program Name 1
  10214 
  10215 EnergyManagementSystem:Program,
  10216     OA_BASED_OPTIMUM_START_EMS_Program,  !- Name
  10217     IF DaylightSavings==0 && DayOfWeek>1 && Hour==5 && OAT<23.9 && OAT>1.7,  !- Program Line 1
  10218     SET CLGSETP_SCH_Actuator = 26.7,  !- Program Line 2
  10219     SET HTGSETP_SCH_Actuator = 15.6,  !- A4
  10220     ELSEIF DaylightSavings==1 && DayOfWeek>1 && Hour==4 && OAT<23.9 && OAT>1.7,  !- A5
  10221     SET CLGSETP_SCH_Actuator = 26.7,  !- A6
  10222     SET HTGSETP_SCH_Actuator = 15.6,  !- A7
  10223     ELSE,                    !- A8
  10224     SET CLGSETP_SCH_Actuator = NULL,  !- A9
  10225     SET HTGSETP_SCH_Actuator = NULL,  !- A10
  10226     ENDIF;                   !- A11
  10227 
  Processing Input Data File (in.idf) -- Complete
  Maximum number of Alpha IDF Args=          94
  Maximum number of Numeric IDF Args=          22
  Number of IDF "Lines"=         937
  Number of Defaulted Fields=         108
  Number of Fields with Defaults=        1901
  Number of Autosized Fields=          80
  Number of Autosizable Fields =         113
  Number of Autocalculated Fields=         143
  Number of Autocalculatable Fields =         252
 Getting object=OUTPUT:SQLITE
 Getting object=VERSION
 Getting object=HEATBALANCEALGORITHM
 Getting object=TIMESTEP
 Getting object=SIMULATIONCONTROL
 Getting object=OUTPUT:SURFACES:LIST
 Getting object=OUTPUT:SURFACES:DRAWING
 Getting object=OUTPUT:VARIABLEDICTIONARY
 Getting object=OUTPUT:CONSTRUCTIONS
 Getting object=OUTPUT:ENERGYMANAGEMENTSYSTEM
 Getting object=BRANCH
 Getting object=CURVE:BIQUADRATIC
 Getting object=CURVE:QUADRATIC
 Getting object=NODELIST
 Getting object=BRANCHLIST
 Getting object=DESIGNSPECIFICATION:OUTDOORAIR
 Getting object=DESIGNSPECIFICATION:ZONEAIRDISTRIBUTION
 Getting object=SIZING:PARAMETERS
 Getting object=ZONE
 Getting object=SIZING:ZONE
 Getting object=SIZING:SYSTEM
 Getting object=SIZING:PLANT
 Getting object=OUTPUT:TABLE:SUMMARYREPORTS
 Getting object=SIZINGPERIOD:DESIGNDAY
 Getting object=RUNPERIOD
 Getting object=RUNPERIODCONTROL:SPECIALDAYS
 Getting object=RUNPERIODCONTROL:DAYLIGHTSAVINGTIME
 Getting object=SITE:LOCATION
 Getting object=SITE:GROUNDTEMPERATURE:BUILDINGSURFACE
 Getting object=SITE:WATERMAINSTEMPERATURE
 Getting object=OUTPUT:VARIABLE
 Getting object=SCHEDULE:COMPACT
  Processing Schedule Input -- Start
 Getting object=SCHEDULETYPELIMITS
 Getting object=SCHEDULE:CONSTANT
  Processing Schedule Input -- Complete
 Getting object=BUILDING
 Getting object=SURFACECONVECTIONALGORITHM:INSIDE
 Getting object=SURFACECONVECTIONALGORITHM:OUTSIDE
 Getting object=MATERIAL
 Getting object=MATERIAL:NOMASS
 Getting object=WINDOWMATERIAL:GLAZING
 Getting object=WINDOWMATERIAL:GAS
 Getting object=CONSTRUCTION
 Getting object=GLOBALGEOMETRYRULES
 Getting object=BUILDINGSURFACE:DETAILED
 Getting object=FENESTRATIONSURFACE:DETAILED
 Getting object=INTERNALMASS
 Getting object=PEOPLE
 Getting object=LIGHTS
 Getting object=ELECTRICEQUIPMENT
 Getting object=SHADOWCALCULATION
 Getting object=DAYLIGHTING:CONTROLS
 Getting object=WATERHEATER:MIXED
 Getting object=ZONEINFILTRATION:DESIGNFLOWRATE
 Getting object=OUTDOORAIR:NODELIST
 Getting object=OUTDOORAIR:NODE
 Getting object=ZONECONTROL:THERMOSTAT
 Getting object=THERMOSTATSETPOINT:DUALSETPOINT
 Getting object=ENERGYMANAGEMENTSYSTEM:SENSOR
 Getting object=ENERGYMANAGEMENTSYSTEM:ACTUATOR
 Getting object=ENERGYMANAGEMENTSYSTEM:GLOBALVARIABLE
 Getting object=ENERGYMANAGEMENTSYSTEM:PROGRAM
 Getting object=ENERGYMANAGEMENTSYSTEM:TRENDVARIABLE
 Getting object=ENERGYMANAGEMENTSYSTEM:OUTPUTVARIABLE
 Getting object=ENERGYMANAGEMENTSYSTEM:PROGRAMCALLINGMANAGER
 Getting object=SETPOINTMANAGER:SCHEDULED
 Getting object=SETPOINTMANAGER:MIXEDAIR
 Getting object=PLANTLOOP
 Getting object=AVAILABILITYMANAGER:NIGHTCYCLE
 Getting object=AVAILABILITYMANAGERASSIGNMENTLIST
 Getting object=CONNECTORLIST
 Getting object=CONNECTOR:SPLITTER
 Getting object=CONNECTOR:MIXER
 Getting object=ZONEHVAC:EQUIPMENTCONNECTIONS
 Getting object=ZONEHVAC:EQUIPMENTLIST
 Getting object=AIRLOOPHVAC:SUPPLYPATH
 Getting object=AIRLOOPHVAC:RETURNPATH
 Getting object=WATERUSE:EQUIPMENT
 Getting object=WATERUSE:CONNECTIONS
 Getting object=ELECTRICLOADCENTER:TRANSFORMER
 Getting object=AIRLOOPHVAC:ZONESPLITTER
 Getting object=ZONEHVAC:AIRDISTRIBUTIONUNIT
 Getting object=AIRTERMINAL:SINGLEDUCT:VAV:REHEAT
 Getting object=COIL:HEATING:ELECTRIC
 Getting object=COIL:HEATING:GAS
 Getting object=AIRLOOPHVAC:RETURNPLENUM
 Getting object=AIRLOOPHVAC:ZONEMIXER
 Getting object=AIRLOOPHVAC
 Getting object=AIRLOOPHVAC:CONTROLLERLIST
 Getting object=AIRLOOPHVAC:OUTDOORAIRSYSTEM
 Getting object=AIRLOOPHVAC:OUTDOORAIRSYSTEM:EQUIPMENTLIST
 Getting object=OUTDOORAIR:MIXER
 Getting object=EXTERIOR:LIGHTS
 Getting object=CONTROLLER:OUTDOORAIR
 Getting object=CONTROLLER:MECHANICALVENTILATION
 Getting object=COILSYSTEM:COOLING:DX
 Getting object=COIL:COOLING:DX:TWOSPEED
 Getting object=FAN:VARIABLEVOLUME
 Getting object=PIPE:ADIABATIC
 Getting object=PLANTEQUIPMENTOPERATIONSCHEMES
 Getting object=PLANTEQUIPMENTOPERATION:HEATINGLOAD
 Getting object=PLANTEQUIPMENTLIST
 Getting object=PUMP:CONSTANTSPEED
 Getting object=METER:CUSTOM
 Getting object=METER:CUSTOMDECREMENT
 Getting object=OUTPUT:METER:METERFILEONLY
 Getting object=OUTPUT:TABLE:MONTHLY
 Getting object=OUTPUTCONTROL:TABLE:STYLE
 MonthlyInputCount=          19
 sizeMonthlyInput=          25
 MonthlyFieldSetInputCount=         144
 sizeMonthlyFieldSetInput=         150
 MonthlyTablesCount=         168
 MonthlyColumnsCount=         928
 sizeReportName=         100
 numReportName=          13
 sizeSubTable=         100
 numSubTable=          63
 sizeColumnTag=         400
 numColumnTag=         397
 sizeTableEntry=        5400
 numTableEntry=        5376
 sizeCompSizeTableEntry=         100
 numCompSizeTableEntry=          65
 NumOfRVariable=       16366
 NumOfRVariable(Total)=       16366
 NumOfRVariable(Actual)=         692
 NumOfRVariable(Summed)=         572
 NumOfRVariable(Meter)=         196
 NumOfIVariable=         723
 NumOfIVariable(Total)=         723
 NumOfIVariable(Actual)=           0
 NumOfIVariable(Summed)=           0
 MaxRVariable=        1000
 MaxIVariable=          10
 NumEnergyMeters=         160
 NumVarMeterArrays=         197
 maxUniqueKeyCount=        1500
 maxNumberOfFigures=           1
 MAXHCArrayBounds=          10
 MaxVerticesPerSurface=           4
 NumReportList=         500
 InstMeterCacheSize=        1000
 ClippingAlgorithm=SutherlandHodgman
 MonthlyFieldSetInputCount=         144
 NumConsideredOutputVariables=          90
 MaxConsideredOutputVariables=          90
 numActuatorsUsed=           4
 numEMSActuatorsAvailable=        2391
 maxEMSActuatorsAvailable=        3000
 numInternalVariablesUsed=           0
 numEMSInternalVarsAvailable=         460
 maxEMSInternalVarsAvailable=        1000
 NumOfNodeConnections=         443
 MaxNumOfNodeConnections=        1000
