  Processing Data Dictionary (Energy+.idd) File -- Complete
  Maximum number of Alpha Args=        4500
  Maximum number of Numeric Args=       21040
  Number of Object Definitions=         689
  Number of Section Definitions=           2
  Total Number of Alpha Fields=       16712
  Total Number of Numeric Fields=       38446
  Total Number of Fields=       55158
  Processing Input Data File (in.idf) -- Start
      1 !-Generator IDFEditor 1.44
      2 !-Option SortedOrder
      3 
      4 !-NOTE: All comments with '!-' are ignored by the IDFEditor and are generated automatically.
      5 !-      Use '!' comments if they need to be retained when using the IDFEditor.
      6 
      7 
      8 !-   ===========  ALL OBJECTS IN CLASS: VERSION ===========
      9 
     10 ! The 90.1 Prototype Building Models were developed by Pacific Northwest National Laboratory (PNNL),
     11 ! under contract with the U.S. Department of Energy (DOE).  These building models were derived from
     12 ! DOE’s Commercial Reference Building Models with modifications based on input from the ASHRAE Standard 90.1 committee,
     13 ! the Advanced Energy Design Guide series, and building industry experts.
     14 ! The prototypes models were developed to quantify energy saving impacts from
     15 ! newly published editions of ASHRAE Standard 90.1.  The basic building descriptions can be found in the Scorecards
     16 ! posted at this website.  Detailed descriptions of the prototype model development and addenda modeling
     17 ! strategies can be found in the following  reports:
     18 ! "Achieving 30% Goal: Energy and Cost Saving Analysis of ASHRAE/IES Standard 90.1-2010."
     19 ! "Enhancements to ASHRAE Standard 90.1 Prototype Building Models"
     20 ! "Energy Savings Analysis: ANSI/ASHRAE/IES Standard 90.1-2016"
     21 ! "ANSI/ASHRAE/IES Standard 90.1-2013 Determination of Energy Savings: Quantitative Analysis"
     22 !
     23 ! BEGIN ECONOMIZER MAP
     24 ! Economizer Name, DX COIL Name
     25 ! PACU_VAV_bot_OA_Controller, PACU_VAV_bot_CoolC DXCoil
     26 ! PACU_VAV_mid_OA_Controller, PACU_VAV_mid_CoolC DXCoil
     27 ! PACU_VAV_top_OA_Controller, PACU_VAV_top_CoolC DXCoil
     28 ! END ECONOMIZER MAP
     29 ! WeatherFile:  USA_NY_Buffalo.Niagara.Intl.AP.725280_TMY3.epw
     30 ! GPARM parameters as input:
     31 !    Case = DOE.determination2013_OfficeMedium_STD2013_Chicago
     32 !    weatherfile = USA_IL_Chicago-OHare_TMY2.epw
     33 !    annual_run = yes
     34 !    slab_gtp = Zone5A_nonres_R15_2ftV_OfficeMedium_Buffalo_AddendumBB.gtp
     35 !    basement_tempt = OfficeMedium_STD2007_Chicago_bsmt.idf
     36 !    avg_oa_tempt_ip = 48.14
     37 !    maxdiff_oa_tempt_ip = 47.16
     38 !    ext_wall_type = SteelFramedWall
     39 !    nonres_ext_wall_ufactor = 0.312304465
     40 !    roof_type = LightweightRoof
     41 !    nonres_roof_ufactor = 0.181704416
     42 !    roof_emissivity = 0.9
     43 !    roof_solar_absorp = 0.7
     44 !    nonres_window = Window_U_0.42_SHGC_0.40
     45 !    economizer = DifferentialDryBulb
     46 !    skip_economizer_control = No
     47 !    sidelighting_control = yes_AY
     48 !    LPD_office = 8.826406542
     49 !    exterior_lights_watts = 0
     50 !    exterior_lights_watts_a = 519.2
     51 !    exterior_lights_watts_b = 7402.3
     52 !    avg_oa_tempt = 8.966666667
     53 !    maxdiff_oa_tempt = 26.2
     54 !    infil = 0.00056896
     55 !    oa_flow_per_area = 0.000431773
     56 !    SAT_reset_switch = Yes
     57 !    SAT_reset_T = 15.6
     58 !    door_infil = 0.678659786
     59 !    frac_ofpk = 0.131
     60 !    damper_sched = MinOA_MotorizedDamper_Sched
     61 !    economizer_lockout = NoLockout
     62 !    heating_damper_act = Normal
     63 !    add_ck_pacu_vav_bot = Yes
     64 !    add_ck_pacu_vav_mid = Yes
     65 !    add_ck_pacu_vav_top = Yes
     66 !    core_bottom_mdp = 0.3
     67 !    perimeter_bot_zn_1_mdp = 0.3
     68 !    perimeter_bot_zn_2_mdp = 0.3
     69 !    perimeter_bot_zn_3_mdp = 0.345376709903065
     70 !    perimeter_bot_zn_4_mdp = 0.3
     71 !    core_mid_mdp = 0.348583408942612
     72 !    perimeter_mid_zn_1_mdp = 0.3
     73 !    perimeter_mid_zn_2_mdp = 0.3
     74 !    perimeter_mid_zn_3_mdp = 0.3
     75 !    perimeter_mid_zn_4_mdp = 0.3
     76 !    core_top_mdp = 0.343270597077594
     77 !    perimeter_top_zn_1_mdp = 0.3
     78 !    perimeter_top_zn_2_mdp = 0.3
     79 !    perimeter_top_zn_3_mdp = 0.3
     80 !    perimeter_top_zn_4_mdp = 0.3
     81 !    pacu_vav_bot_oaf = 1.19508883333333
     82 !    pacu_vav_mid_oaf = 1.19508883333333
     83 !    pacu_vav_top_oaf = 1.19508883333333
     84 !    BLDG_ELEVATORS_LIGHTS_FAN_SCH = ELEV_LIGHT_FAN_SCH_ADD_DF
     85 !    BLDG_ELEVATORS_LIGHTS_FAN_POWER = 125
     86 !    BLDG_EQUIP_SCH = BLDG_EQUIP_SCH_ADV
     87 !    addendum_cd = yes
     88 !    pv_generator = no
     89 !    pv_surface_area = 0
     90 !    STD189_overhang = no
     91 !    swh_et = 0.808039999
     92 !    swh_ua = 7.561562668
     93 !    ext_lgt_sch = Exterior_Lgt_ALWAYS_ON
     94 !    PACU_VAV_bot_ERV = No
     95 !    PACU_VAV_mid_ERV = No
     96 !    PACU_VAV_top_ERV = No
     97 !    LTG_SCH_SET = LTG_SET_STD2013
     98 !    transformer_size = 45000
     99 !    transformer_eff = 0.977
    100 !    PACU_VAV_bot_ERV_power = 907.476237916664
    101 !    PACU_VAV_mid_ERV_power = 907.476237916664
    102 !    PACU_VAV_top_ERV_power = 907.476237916664
    103 !    OA_BASED_OPTIMUM_START_EMS = yes
    104 !    OPTIMUM_START_SF_DEPENDENT_EMS = no
    105 !    wwr = 0.33
    106 !    pipe_heat_loss = 2003.43
    107 !    skip_EMSprogram = yes
    108 !    HtgSetP_Sch_PACU_VAV_bot = HTGSETP_SCH_YES_OPTIMUM
    109 !    HtgSetP_Sch_PACU_VAV_mid = HTGSETP_SCH_YES_OPTIMUM
    110 !    HtgSetP_Sch_PACU_VAV_top = HTGSETP_SCH_YES_OPTIMUM
    111 !    ClgSetP_Sch_PACU_VAV_bot = CLGSETP_SCH_YES_OPTIMUM
    112 !    ClgSetP_Sch_PACU_VAV_mid = CLGSETP_SCH_YES_OPTIMUM
    113 !    ClgSetP_Sch_PACU_VAV_top = CLGSETP_SCH_YES_OPTIMUM
    114 !    Wfile_TMY3 = USA_NY_Buffalo.Niagara.Intl.AP.725280_TMY3.epw
    115 !    loadProfile = No
    116 !    receptacle_ctrl_occ_reduction_frac = 0.95308699
    117 !    receptacle_ctrl_unocc_reduction_frac = 0.769184602
    118 !    SHW_Pump_Head = 29891
    119 !    CodeName = DOE.determination2013_ASHRAE90.1_STD2013
    120 !    CZ_City_Old = Chicago
    121 !    CZ_Label = 5A
    122 !    exterior_lights_watts_c = 0
    123 !    Addendum_AH = No
    124 !    LPD_Ctrl = 0
    125 !    con_swingdoor_r = 0.352236703
    126 Version,
    127     8.0;                     !- Version Identifier
    128 
    129 
    130 !-   ===========  ALL OBJECTS IN CLASS: SIMULATIONCONTROL ===========
    131 
    132 SimulationControl,
    133     Yes,                     !- Do Zone Sizing Calculation
    134     Yes,                     !- Do System Sizing Calculation
    135     Yes,                     !- Do Plant Sizing Calculation
    136     Yes,                     !- Run Simulation for Sizing Periods
    137     YES;                     !- Run Simulation for Weather File Run Periods
    138 
    139 
    140 !-   ===========  ALL OBJECTS IN CLASS: BUILDING ===========
    141 
    142 Building,
    143     Medium Office,           !- Name
    144     0.0000,                  !- North Axis {deg}
    145     City,                    !- Terrain
    146     0.0400,                  !- Loads Convergence Tolerance Value
    147     0.2000,                  !- Temperature Convergence Tolerance Value {deltaC}
    148     FullInteriorAndExterior, !- Solar Distribution
    149     25,                      !- Maximum Number of Warmup Days
    150     6;                       !- Minimum Number of Warmup Days
    151 
    152 
    153 !-   ===========  ALL OBJECTS IN CLASS: SHADOWCALCULATION ===========
    154 
    155 ShadowCalculation,
    156     AverageOverDaysInFrequency,  !- Calculation Method
    157     30;                      !- Calculation Frequency
    158 
    159 
    160 !-   ===========  ALL OBJECTS IN CLASS: SURFACECONVECTIONALGORITHM:INSIDE ===========
    161 
    162 SurfaceConvectionAlgorithm:Inside,
    163     TARP;                    !- Algorithm
    164 
    165 
    166 !-   ===========  ALL OBJECTS IN CLASS: SURFACECONVECTIONALGORITHM:OUTSIDE ===========
    167 
    168 SurfaceConvectionAlgorithm:Outside,
    169     TARP;                    !- Algorithm
    170 
    171 
    172 !-   ===========  ALL OBJECTS IN CLASS: HEATBALANCEALGORITHM ===========
    173 
    174 HeatBalanceAlgorithm,
    175     ConductionTransferFunction;  !- Algorithm
    176 
    177 
    178 !-   ===========  ALL OBJECTS IN CLASS: TIMESTEP ===========
    179 
    180 Timestep,
    181     4;                       !- Number of Timesteps per Hour
    182 
    183 
    184 !-   ===========  ALL OBJECTS IN CLASS: SITE:LOCATION ===========
    185 
    186 ! Location and design-day objects created by:
    187 ! Site:Location and design-day objects created by:
    188 ! /projects/bigsim/bin/ddy2idf /projects/bigsim/weather/EnergyPlus/tmy3.new/all/USA_NY_Buffalo.Niagara.Intl.AP.725280_TMY3.ddy
    189 !
    190 Site:Location,
    191     Buffalo.Niagara.Intl.AP_NY_USA WMO=725280,  !- Name
    192     42.94,                   !- Latitude {deg}
    193     -78.74,                  !- Longitude {deg}
    194     -5.00,                   !- Time Zone {hr}
    195     215.00;                  !- Elevation {m}
    196 
    197 
    198 !-   ===========  ALL OBJECTS IN CLASS: SIZINGPERIOD:DESIGNDAY ===========
    199 
    200 SizingPeriod:DesignDay,
    201     Buffalo.Niagara.Intl.AP_NY_USA Ann Htg 99.6% Condns DB,  !- Name
    202     1,                       !- Month
    203     21,                      !- Day of Month
    204     WinterDesignDay,         !- Day Type
    205     -16.3,                   !- Maximum Dry-Bulb Temperature {C}
    206     0.0,                     !- Daily Dry-Bulb Temperature Range {deltaC}
    207     DefaultMultipliers,      !- Dry-Bulb Temperature Range Modifier Type
    208     ,                        !- Dry-Bulb Temperature Range Modifier Day Schedule Name
    209     Wetbulb,                 !- Humidity Condition Type
    210     -16.3,                   !- Wetbulb or DewPoint at Maximum Dry-Bulb {C}
    211     ,                        !- Humidity Condition Day Schedule Name
    212     ,                        !- Humidity Ratio at Maximum Dry-Bulb {kgWater/kgDryAir}
    213     ,                        !- Enthalpy at Maximum Dry-Bulb {J/kg}
    214     ,                        !- Daily Wet-Bulb Temperature Range {deltaC}
    215     98769.,                  !- Barometric Pressure {Pa}
    216     5.1,                     !- Wind Speed {m/s}
    217     270,                     !- Wind Direction {deg}
    218     No,                      !- Rain Indicator
    219     No,                      !- Snow Indicator
    220     No,                      !- Daylight Saving Time Indicator
    221     ASHRAEClearSky,          !- Solar Model Indicator
    222     ,                        !- Beam Solar Day Schedule Name
    223     ,                        !- Diffuse Solar Day Schedule Name
    224     ,                        !- ASHRAE Clear Sky Optical Depth for Beam Irradiance (taub) {dimensionless}
    225     ,                        !- ASHRAE Clear Sky Optical Depth for Diffuse Irradiance (taud) {dimensionless}
    226     0.00;                    !- Sky Clearness
    227 
    228 SizingPeriod:DesignDay,
    229     Buffalo.Niagara.Intl.AP_NY_USA Ann Clg .4% Condns DB=>MWB,  !- Name
    230     7,                       !- Month
    231     21,                      !- Day of Month
    232     SummerDesignDay,         !- Day Type
    233     30.3,                    !- Maximum Dry-Bulb Temperature {C}
    234     9.3,                     !- Daily Dry-Bulb Temperature Range {deltaC}
    235     DefaultMultipliers,      !- Dry-Bulb Temperature Range Modifier Type
    236     ,                        !- Dry-Bulb Temperature Range Modifier Day Schedule Name
    237     Wetbulb,                 !- Humidity Condition Type
    238     21.8,                    !- Wetbulb or DewPoint at Maximum Dry-Bulb {C}
    239     ,                        !- Humidity Condition Day Schedule Name
    240     ,                        !- Humidity Ratio at Maximum Dry-Bulb {kgWater/kgDryAir}
    241     ,                        !- Enthalpy at Maximum Dry-Bulb {J/kg}
    242     ,                        !- Daily Wet-Bulb Temperature Range {deltaC}
    243     98769.,                  !- Barometric Pressure {Pa}
    244     5.7,                     !- Wind Speed {m/s}
    245     240,                     !- Wind Direction {deg}
    246     No,                      !- Rain Indicator
    247     No,                      !- Snow Indicator
    248     No,                      !- Daylight Saving Time Indicator
    249     ASHRAETau,               !- Solar Model Indicator
    250     ,                        !- Beam Solar Day Schedule Name
    251     ,                        !- Diffuse Solar Day Schedule Name
    252     0.462,                   !- ASHRAE Clear Sky Optical Depth for Beam Irradiance (taub) {dimensionless}
    253     2.001;                   !- ASHRAE Clear Sky Optical Depth for Diffuse Irradiance (taud) {dimensionless}
    254 
    255 
    256 !-   ===========  ALL OBJECTS IN CLASS: RUNPERIOD ===========
    257 
    258 RunPeriod,
    259     ,                        !- Name
    260     1,                       !- Begin Month
    261     1,                       !- Begin Day of Month
    262     12,                      !- End Month
    263     31,                      !- End Day of Month
    264     Sunday,                  !- Day of Week for Start Day
    265     No,                      !- Use Weather File Holidays and Special Days
    266     No,                      !- Use Weather File Daylight Saving Period
    267     No,                      !- Apply Weekend Holiday Rule
    268     Yes,                     !- Use Weather File Rain Indicators
    269     Yes;                     !- Use Weather File Snow Indicators
    270 
    271 
    272 !-   ===========  ALL OBJECTS IN CLASS: RUNPERIODCONTROL:SPECIALDAYS ===========
    273 
    274 ! US National Holidays
    275 RunPeriodControl:SpecialDays,
    276     New Years Day,           !- Name
    277     January 1,               !- Start Date
    278     1,                       !- Duration {days}
    279     Holiday;                 !- Special Day Type
    280 
    281 RunPeriodControl:SpecialDays,
    282     Veterans Day,            !- Name
    283     November 11,             !- Start Date
    284     1,                       !- Duration {days}
    285     Holiday;                 !- Special Day Type
    286 
    287 RunPeriodControl:SpecialDays,
    288     Christmas,               !- Name
    289     December 25,             !- Start Date
    290     1,                       !- Duration {days}
    291     Holiday;                 !- Special Day Type
    292 
    293 RunPeriodControl:SpecialDays,
    294     Independence Day,        !- Name
    295     July 4,                  !- Start Date
    296     1,                       !- Duration {days}
    297     Holiday;                 !- Special Day Type
    298 
    299 RunPeriodControl:SpecialDays,
    300     MLK Day,                 !- Name
    301     3rd Monday in January,   !- Start Date
    302     1,                       !- Duration {days}
    303     Holiday;                 !- Special Day Type
    304 
    305 RunPeriodControl:SpecialDays,
    306     Presidents Day,          !- Name
    307     3rd Monday in February,  !- Start Date
    308     1,                       !- Duration {days}
    309     Holiday;                 !- Special Day Type
    310 
    311 RunPeriodControl:SpecialDays,
    312     Memorial Day,            !- Name
    313     Last Monday in May,      !- Start Date
    314     1,                       !- Duration {days}
    315     Holiday;                 !- Special Day Type
    316 
    317 RunPeriodControl:SpecialDays,
    318     Labor Day,               !- Name
    319     1st Monday in September, !- Start Date
    320     1,                       !- Duration {days}
    321     Holiday;                 !- Special Day Type
    322 
    323 RunPeriodControl:SpecialDays,
    324     Columbus Day,            !- Name
    325     2nd Monday in October,   !- Start Date
    326     1,                       !- Duration {days}
    327     Holiday;                 !- Special Day Type
    328 
    329 RunPeriodControl:SpecialDays,
    330     Thanksgiving,            !- Name
    331     4th Thursday in November,!- Start Date
    332     1,                       !- Duration {days}
    333     Holiday;                 !- Special Day Type
    334 
    335 
    336 !-   ===========  ALL OBJECTS IN CLASS: RUNPERIODCONTROL:DAYLIGHTSAVINGTIME ===========
    337 
    338 ! Daylight Saving Period in US
    339 RunPeriodControl:DaylightSavingTime,
    340     2nd Sunday in March,     !- Start Date
    341     1st Sunday in November;  !- End Date
    342 
    343 
    344 !-   ===========  ALL OBJECTS IN CLASS: SITE:GROUNDTEMPERATURE:BUILDINGSURFACE ===========
    345 
    346 !
    347 ! Ground temperature object produced by /projects/bigsim/bin/gt2idf /projects/bigsim/comstd/_p.gtp/_p.gtp_copy_from_local/slab/output/Zone5A_nonres_R15_2ftV_OfficeMedium_Buffalo_AddendumBB.gtp
    348 Site:GroundTemperature:BuildingSurface,
    349     20.50,                   !- January Ground Temperature {C}
    350     20.43,                   !- February Ground Temperature {C}
    351     20.44,                   !- March Ground Temperature {C}
    352     20.50,                   !- April Ground Temperature {C}
    353     20.57,                   !- May Ground Temperature {C}
    354     22.79,                   !- June Ground Temperature {C}
    355     23.21,                   !- July Ground Temperature {C}
    356     23.31,                   !- August Ground Temperature {C}
    357     23.33,                   !- September Ground Temperature {C}
    358     21.11,                   !- October Ground Temperature {C}
    359     20.76,                   !- November Ground Temperature {C}
    360     20.61;                   !- December Ground Temperature {C}
    361 
    362 
    363 !-   ===========  ALL OBJECTS IN CLASS: SITE:WATERMAINSTEMPERATURE ===========
    364 
    365 Site:WaterMainsTemperature,
    366     Correlation,             !- Calculation Method
    367     ,                        !- Temperature Schedule Name
    368     8.966666667,             !- Annual Average Outdoor Air Temperature {C}
    369     26.2;                    !- Maximum Difference In Monthly Average Outdoor Air Temperatures {deltaC}
    370 
    371 
    372 !-   ===========  ALL OBJECTS IN CLASS: SCHEDULETYPELIMITS ===========
    373 
    374 ScheduleTypeLimits,
    375     Any Number;              !- Name
    376 
    377 ScheduleTypeLimits,
    378     Fraction,                !- Name
    379     0.0,                     !- Lower Limit Value
    380     1.0,                     !- Upper Limit Value
    381     Continuous;              !- Numeric Type
    382 
    383 ScheduleTypeLimits,
    384     Temperature,             !- Name
    385     -60,                     !- Lower Limit Value
    386     200,                     !- Upper Limit Value
    387     Continuous;              !- Numeric Type
    388 
    389 ScheduleTypeLimits,
    390     On/Off,                  !- Name
    391     0,                       !- Lower Limit Value
    392     1,                       !- Upper Limit Value
    393     Discrete;                !- Numeric Type
    394 
    395 ScheduleTypeLimits,
    396     Control Type,            !- Name
    397     0,                       !- Lower Limit Value
    398     4,                       !- Upper Limit Value
    399     Discrete;                !- Numeric Type
    400 
    401 ScheduleTypeLimits,
    402     Humidity,                !- Name
    403     10,                      !- Lower Limit Value
    404     90,                      !- Upper Limit Value
    405     Continuous;              !- Numeric Type
    406 
    407 ScheduleTypeLimits,
    408     Number;                  !- Name
    409 
    410 
    411 !-   ===========  ALL OBJECTS IN CLASS: SCHEDULE:COMPACT ===========
    412 
    413 Schedule:Compact,
    414     Exterior_lighting_schedule_a,  !- Name
    415     fraction,                !- Schedule Type Limits Name
    416     Through:12/31,           !- Field 1
    417     For:AllDays,             !- Field 2
    418     Until: 06:00,            !- Field 3
    419     0,                       !- Field 4
    420     Until: 24:00,            !- Field 5
    421     1;                       !- Field 6
    422 
    423 Schedule:Compact,
    424     Exterior_lighting_schedule_b,  !- Name
    425     fraction,                !- Schedule Type Limits Name
    426     Through:12/31,           !- Field 1
    427     For:AllDays,             !- Field 2
    428     Until: 06:00,            !- Field 3
    429     0.7,                     !- Field 4
    430     Until: 24:00,            !- Field 5
    431     1;                       !- Field 6
    432 
    433 Schedule:Compact,
    434     Exterior_lighting_schedule_a_IECC2015,  !- Name
    435     fraction,                !- Schedule Type Limits Name
    436     Through:12/31,           !- Field 1
    437     For:Weekdays SummerDesignDay,  !- Field 2
    438     Until: 07:00,            !- Field 3
    439     0,                       !- Field 4
    440     Until: 22:00,            !- Field 5
    441     1,                       !- Field 6
    442     Until: 24:00,            !- Field 7
    443     0,                       !- Field 8
    444     For:Saturdays,           !- Field 9
    445     Until: 07:00,            !- Field 10
    446     0,                       !- Field 11
    447     Until: 18:00,            !- Field 12
    448     1,                       !- Field 13
    449     Until: 24:00,            !- Field 14
    450     0,                       !- Field 15
    451     For:AllOtherDays,        !- Field 16
    452     Until: 24:00,            !- Field 17
    453     0;                       !- Field 18
    454 
    455 !
    456 Schedule:Compact,
    457     Exterior_lighting_schedule_b_2016,  !- Name
    458     fraction,                !- Schedule Type Limits Name
    459     Through:12/31,           !- Field 1
    460     For:AllDays,             !- Field 2
    461     Until: 06:00,            !- Field 3
    462     0.5,                     !- Field 4
    463     Until: 24:00,            !- Field 5
    464     1;                       !- Field 6
    465 
    466 Schedule:Compact,
    467     Exterior_lighting_schedule_c_2016,  !- Name
    468     fraction,                !- Schedule Type Limits Name
    469     Through:12/31,           !- Field 1
    470     For:AllDays,             !- Field 2
    471     Until: 06:00,            !- Field 3
    472     0.5,                     !- Field 4
    473     Until: 19:00,            !- Field 5
    474     1,                       !- Field 6
    475     Until: 24:00,            !- Field 7
    476     0.5;                     !- Field 8
    477 
    478 Schedule:Compact,
    479     Hours_of_operation,      !- Name
    480     on/off,                  !- Schedule Type Limits Name
    481     Through: 12/31,          !- Field 1
    482     For: Weekdays SummerDesignDay,  !- Field 2
    483     Until: 06:00,            !- Field 3
    484     0.0,                     !- Field 4
    485     Until: 22:00,            !- Field 5
    486     1.0,                     !- Field 6
    487     Until: 24:00,            !- Field 7
    488     0.0,                     !- Field 8
    489     For: Saturday WinterDesignDay,  !- Field 9
    490     Until: 06:00,            !- Field 10
    491     0.0,                     !- Field 11
    492     Until: 18:00,            !- Field 12
    493     1.0,                     !- Field 13
    494     Until: 24:00,            !- Field 14
    495     0.0,                     !- Field 15
    496     For:Sunday Holidays AllOtherDays,  !- Field 16
    497     Until: 24:00,            !- Field 17
    498     0.0;                     !- Field 18
    499 
    500 Schedule:Compact,
    501     ALWAYS_ON,               !- Name
    502     Fraction,                !- Schedule Type Limits Name
    503     Through: 12/31,          !- Field 1
    504     For: AllDays,            !- Field 2
    505     Until: 24:00,            !- Field 3
    506     1.0;                     !- Field 4
    507 
    508 Schedule:Compact,
    509     Exterior_Lgt_ALWAYS_ON,  !- Name
    510     Fraction,                !- Schedule Type Limits Name
    511     Through: 12/31,          !- Field 1
    512     For: AllDays,            !- Field 2
    513     Until: 24:00,            !- Field 3
    514     1;                       !- Field 4
    515 
    516 Schedule:Compact,
    517     Exterior_Lgt_189_1,      !- Name
    518     Fraction,                !- Schedule Type Limits Name
    519     Through:12/31,           !- Field 1
    520     For:Weekdays,            !- Field 2
    521     Until:  9:00,            !- Field 3
    522     0.5,                     !- Field 4
    523     Until: 24:00,            !- Field 5
    524     1.0,                     !- Field 6
    525     For:Saturday,            !- Field 7
    526     Until:  9:00,            !- Field 8
    527     0.5,                     !- Field 9
    528     Until: 19:00,            !- Field 10
    529     1.0,                     !- Field 11
    530     Until: 24:00,            !- Field 12
    531     0.5,                     !- Field 13
    532     For:Sunday Holidays AllOtherDays,  !- Field 14
    533     Until:  9:00,            !- Field 15
    534     0.5,                     !- Field 16
    535     Until: 18:00,            !- Field 17
    536     1.0,                     !- Field 18
    537     Until: 24:00,            !- Field 19
    538     0.5;                     !- Field 20
    539 
    540 Schedule:Compact,
    541     ALWAYS_OFF,              !- Name
    542     Fraction,                !- Schedule Type Limits Name
    543     Through: 12/31,          !- Field 1
    544     For: AllDays,            !- Field 2
    545     Until: 24:00,            !- Field 3
    546     0.0;                     !- Field 4
    547 
    548 ! Schedule Office HVAC Systems, ASHRAE 90.1-1989, Section 13
    549 Schedule:Compact,
    550     HVACOperationSchd,       !- Name
    551     on/off,                  !- Schedule Type Limits Name
    552     Through: 12/31,          !- Field 1
    553     For: Weekdays SummerDesignDay,  !- Field 2
    554     Until: 06:00,            !- Field 3
    555     0.0,                     !- Field 4
    556     Until: 22:00,            !- Field 5
    557     1.0,                     !- Field 6
    558     Until: 24:00,            !- Field 7
    559     0.0,                     !- Field 8
    560     For: Saturday WinterDesignDay,  !- Field 9
    561     Until: 06:00,            !- Field 10
    562     0.0,                     !- Field 11
    563     Until: 18:00,            !- Field 12
    564     1.0,                     !- Field 13
    565     Until: 24:00,            !- Field 14
    566     0.0,                     !- Field 15
    567     For:Sunday Holidays AllOtherDays,  !- Field 16
    568     Until: 24:00,            !- Field 17
    569     0.0;                     !- Field 18
    570 
    571 ! Schedule Office Lighting,  ASHRAE 90.1-1989, Section 13 w/addenda
    572 ! lighting schedules for ASHRAE90.1-STD2004, ASHRAE90.1-2007
    573 ! lighting schedules for ASHRAE90.1-STD2010
    574 ! lighting schedules for IECC2006 / IECC2009
    575 ! lighting schedules for IECC2012
    576 ! lighting schedules for IECC2015
    577 ! lighting schedules for ASHRAE1891_2009
    578 ! lighting schedules for ASHRAE1891_2011
    579 ! lighting schedules for ASHRAE90.1-2013
    580 Schedule:Compact,
    581     BLDG_LIGHT_SCH,          !- Name
    582     Fraction,                !- Schedule Type Limits Name
    583     Through: 12/31,          !- Field 1
    584     For: Weekdays,           !- Field 2
    585     Until: 5:00,             !- Field 3
    586     0.05,                    !- Field 4
    587     Until: 6:00,             !- Field 5
    588     0.1,                     !- Field 6
    589     Until: 7:00,             !- Field 7
    590     0.08623256,              !- Field 8
    591     Until: 8:00,             !- Field 9
    592     0.25869768,              !- Field 10
    593     Until: 17:00,            !- Field 11
    594     0.77609304,              !- Field 12
    595     Until: 18:00,            !- Field 13
    596     0.4311628,               !- Field 14
    597     Until: 20:00,            !- Field 15
    598     0.25869768,              !- Field 16
    599     Until: 22:00,            !- Field 17
    600     0.17246512,              !- Field 18
    601     Until: 23:00,            !- Field 19
    602     0.08623256,              !- Field 20
    603     Until: 24:00,            !- Field 21
    604     0.04311628,              !- Field 22
    605     For: SummerDesignDay,    !- Field 23
    606     Until: 24:00,            !- Field 24
    607     1,                       !- Field 25
    608     For: Saturday,           !- Field 26
    609     Until: 6:00,             !- Field 27
    610     0.05,                    !- Field 28
    611     Until: 8:00,             !- Field 29
    612     0.08623256,              !- Field 30
    613     Until: 12:00,            !- Field 31
    614     0.25869768,              !- Field 32
    615     Until: 17:00,            !- Field 33
    616     0.12934884,              !- Field 34
    617     Until: 19:00,            !- Field 35
    618     0.04311628,              !- Field 36
    619     Until: 24:00,            !- Field 37
    620     0.05,                    !- Field 38
    621     For: WinterDesignDay,    !- Field 39
    622     Until: 24:00,            !- Field 40
    623     0,                       !- Field 41
    624     For: Sunday Holidays AllOtherDays,  !- Field 42
    625     Until: 6:00,             !- Field 43
    626     0.05,                    !- Field 44
    627     Until: 18:00,            !- Field 45
    628     0.04311628,              !- Field 46
    629     Until: 24:00,            !- Field 47
    630     0.05;                    !- Field 48
    631 
    632 ! Schedule Office Receptacle,  ASHRAE 90.1-1989, Section 13
    633 !
    634 Schedule:Compact,
    635     BLDG_EQUIP_SCH,          !- Name
    636     Fraction,                !- Schedule Type Limits Name
    637     Through: 12/31,          !- Field 1
    638     For: Weekdays,           !- Field 2
    639     Until: 06:00,            !- Field 3
    640     0.3076738408,            !- Field 4
    641     Until: 08:00,            !- Field 5
    642     0.381234796,             !- Field 6
    643     Until: 12:00,            !- Field 7
    644     0.857778291,             !- Field 8
    645     Until: 13:00,            !- Field 9
    646     0.762469592,             !- Field 10
    647     Until: 17:00,            !- Field 11
    648     0.857778291,             !- Field 12
    649     Until: 18:00,            !- Field 13
    650     0.476543495,             !- Field 14
    651     Until: 24:00,            !- Field 15
    652     0.381234796,             !- Field 16
    653     For: SummerDesignDay,    !- Field 17
    654     Until: 24:00,            !- Field 18
    655     1.0,                     !- Field 19
    656     For: Saturday,           !- Field 20
    657     Until: 06:00,            !- Field 21
    658     0.2307553806,            !- Field 22
    659     Until: 08:00,            !- Field 23
    660     0.381234796,             !- Field 24
    661     Until: 12:00,            !- Field 25
    662     0.476543495,             !- Field 26
    663     Until: 17:00,            !- Field 27
    664     0.3335804465,            !- Field 28
    665     Until: 19:00,            !- Field 29
    666     0.285926097,             !- Field 30
    667     Until: 24:00,            !- Field 31
    668     0.2307553806,            !- Field 32
    669     For: WinterDesignDay,    !- Field 33
    670     Until: 24:00,            !- Field 34
    671     0.0,                     !- Field 35
    672     For: Sunday Holidays AllOtherDays,  !- Field 36
    673     Until: 06:00,            !- Field 37
    674     0.2307553806,            !- Field 38
    675     Until: 18:00,            !- Field 39
    676     0.285926097,             !- Field 40
    677     Until: 24:00,            !- Field 41
    678     0.2307553806;            !- Field 42
    679 
    680 Schedule:Compact,
    681     BLDG_OCC_SCH,            !- Name
    682     Fraction,                !- Schedule Type Limits Name
    683     Through: 12/31,          !- Field 1
    684     For: Weekdays,           !- Field 2
    685     Until: 06:00,            !- Field 3
    686     0.0,                     !- Field 4
    687     Until: 07:00,            !- Field 5
    688     0.1,                     !- Field 6
    689     Until: 08:00,            !- Field 7
    690     0.2,                     !- Field 8
    691     Until: 12:00,            !- Field 9
    692     0.95,                    !- Field 10
    693     Until: 13:00,            !- Field 11
    694     0.5,                     !- Field 12
    695     Until: 17:00,            !- Field 13
    696     0.95,                    !- Field 14
    697     Until: 18:00,            !- Field 15
    698     0.3,                     !- Field 16
    699     Until: 22:00,            !- Field 17
    700     0.1,                     !- Field 18
    701     Until: 24:00,            !- Field 19
    702     0.05,                    !- Field 20
    703     For: SummerDesignDay,    !- Field 21
    704     Until: 06:00,            !- Field 22
    705     0.000000001,             !- Field 23
    706     Until: 22:00,            !- Field 24
    707     1.0,                     !- Field 25
    708     Until: 24:00,            !- Field 26
    709     0.05,                    !- Field 27
    710     For: Saturday,           !- Field 28
    711     Until: 06:00,            !- Field 29
    712     0.0,                     !- Field 30
    713     Until: 08:00,            !- Field 31
    714     0.1,                     !- Field 32
    715     Until: 12:00,            !- Field 33
    716     0.3,                     !- Field 34
    717     Until: 17:00,            !- Field 35
    718     0.1,                     !- Field 36
    719     Until: 19:00,            !- Field 37
    720     0.05,                    !- Field 38
    721     Until: 24:00,            !- Field 39
    722     0.0,                     !- Field 40
    723     For: WinterDesignDay,    !- Field 41
    724     Until: 24:00,            !- Field 42
    725     0.0,                     !- Field 43
    726     For:Sunday Holidays AllOtherDays,  !- Field 44
    727     Until: 06:00,            !- Field 45
    728     0.0,                     !- Field 46
    729     Until: 18:00,            !- Field 47
    730     0.05,                    !- Field 48
    731     Until: 24:00,            !- Field 49
    732     0.0;                     !- Field 50
    733 
    734 Schedule:Compact,
    735     BLDG_ELEVATORS,          !- Name
    736     Fraction,                !- Schedule Type Limits Name
    737     Through: 12/31,          !- Field 1
    738     For: SummerDesignDay,    !- Field 2
    739     Until: 24:00,            !- Field 3
    740     0.69,                    !- Field 4
    741     For: WinterDesignDay,    !- Field 5
    742     Until: 24:00,            !- Field 6
    743     0.0,                     !- Field 7
    744     For: Weekdays,           !- Field 8
    745     Until: 07:00,            !- Field 9
    746     0.0,                     !- Field 10
    747     Until: 08:00,            !- Field 11
    748     0.35,                    !- Field 12
    749     Until: 09:00,            !- Field 13
    750     0.69,                    !- Field 14
    751     Until: 10:00,            !- Field 15
    752     0.43,                    !- Field 16
    753     Until: 11:00,            !- Field 17
    754     0.37,                    !- Field 18
    755     Until: 12:00,            !- Field 19
    756     0.43,                    !- Field 20
    757     Until: 13:00,            !- Field 21
    758     0.58,                    !- Field 22
    759     Until: 14:00,            !- Field 23
    760     0.48,                    !- Field 24
    761     Until: 15:00,            !- Field 25
    762     0.37,                    !- Field 26
    763     Until: 16:00,            !- Field 27
    764     0.37,                    !- Field 28
    765     Until: 17:00,            !- Field 29
    766     0.46,                    !- Field 30
    767     Until: 18:00,            !- Field 31
    768     0.62,                    !- Field 32
    769     Until: 19:00,            !- Field 33
    770     0.12,                    !- Field 34
    771     Until: 20:00,            !- Field 35
    772     0.04,                    !- Field 36
    773     Until: 21:00,            !- Field 37
    774     0.04,                    !- Field 38
    775     Until: 24:00,            !- Field 39
    776     0.00,                    !- Field 40
    777     For: Saturday,           !- Field 41
    778     Until: 07:00,            !- Field 42
    779     0.0,                     !- Field 43
    780     Until: 08:00,            !- Field 44
    781     0.16,                    !- Field 45
    782     Until: 09:00,            !- Field 46
    783     0.14,                    !- Field 47
    784     Until: 10:00,            !- Field 48
    785     0.21,                    !- Field 49
    786     Until: 11:00,            !- Field 50
    787     0.18,                    !- Field 51
    788     Until: 12:00,            !- Field 52
    789     0.25,                    !- Field 53
    790     Until: 13:00,            !- Field 54
    791     0.21,                    !- Field 55
    792     Until: 14:00,            !- Field 56
    793     0.13,                    !- Field 57
    794     Until: 15:00,            !- Field 58
    795     0.08,                    !- Field 59
    796     Until: 16:00,            !- Field 60
    797     0.04,                    !- Field 61
    798     Until: 17:00,            !- Field 62
    799     0.05,                    !- Field 63
    800     Until: 18:00,            !- Field 64
    801     0.06,                    !- Field 65
    802     Until: 24:00,            !- Field 66
    803     0.00,                    !- Field 67
    804     For:Sunday Holidays AllOtherDays,  !- Field 68
    805     Until: 24:00,            !- Field 69
    806     0.0;                     !- Field 70
    807 
    808 Schedule:Compact,
    809     ELEV_LIGHT_FAN_SCH_24_7, !- Name
    810     Fraction,                !- Schedule Type Limits Name
    811     Through: 12/31,          !- Field 1
    812     For: AllDays,            !- Field 2
    813     Until: 24:00,            !- Field 3
    814     1;                       !- Field 4
    815 
    816 Schedule:Compact,
    817     ELEV_LIGHT_FAN_SCH_ADD_DF,  !- Name
    818     Fraction,                !- Schedule Type Limits Name
    819     Through: 12/31,          !- Field 1
    820     For: SummerDesignDay,    !- Field 2
    821     Until: 24:00,            !- Field 3
    822     0.69,                    !- Field 4
    823     For: WinterDesignDay,    !- Field 5
    824     Until: 24:00,            !- Field 6
    825     0.0,                     !- Field 7
    826     For: Weekdays,           !- Field 8
    827     Until: 07:00,            !- Field 9
    828     0.0,                     !- Field 10
    829     Until: 08:00,            !- Field 11
    830     0.35,                    !- Field 12
    831     Until: 09:00,            !- Field 13
    832     0.69,                    !- Field 14
    833     Until: 10:00,            !- Field 15
    834     0.43,                    !- Field 16
    835     Until: 11:00,            !- Field 17
    836     0.37,                    !- Field 18
    837     Until: 12:00,            !- Field 19
    838     0.43,                    !- Field 20
    839     Until: 13:00,            !- Field 21
    840     0.58,                    !- Field 22
    841     Until: 14:00,            !- Field 23
    842     0.48,                    !- Field 24
    843     Until: 15:00,            !- Field 25
    844     0.37,                    !- Field 26
    845     Until: 16:00,            !- Field 27
    846     0.37,                    !- Field 28
    847     Until: 17:00,            !- Field 29
    848     0.46,                    !- Field 30
    849     Until: 18:00,            !- Field 31
    850     0.62,                    !- Field 32
    851     Until: 19:00,            !- Field 33
    852     0.12,                    !- Field 34
    853     Until: 20:00,            !- Field 35
    854     0.04,                    !- Field 36
    855     Until: 21:00,            !- Field 37
    856     0.04,                    !- Field 38
    857     Until: 24:00,            !- Field 39
    858     0.00,                    !- Field 40
    859     For: Saturday,           !- Field 41
    860     Until: 07:00,            !- Field 42
    861     0.0,                     !- Field 43
    862     Until: 08:00,            !- Field 44
    863     0.16,                    !- Field 45
    864     Until: 09:00,            !- Field 46
    865     0.14,                    !- Field 47
    866     Until: 10:00,            !- Field 48
    867     0.21,                    !- Field 49
    868     Until: 11:00,            !- Field 50
    869     0.18,                    !- Field 51
    870     Until: 12:00,            !- Field 52
    871     0.25,                    !- Field 53
    872     Until: 13:00,            !- Field 54
    873     0.21,                    !- Field 55
    874     Until: 14:00,            !- Field 56
    875     0.13,                    !- Field 57
    876     Until: 15:00,            !- Field 58
    877     0.08,                    !- Field 59
    878     Until: 16:00,            !- Field 60
    879     0.04,                    !- Field 61
    880     Until: 17:00,            !- Field 62
    881     0.05,                    !- Field 63
    882     Until: 18:00,            !- Field 64
    883     0.06,                    !- Field 65
    884     Until: 24:00,            !- Field 66
    885     0.00,                    !- Field 67
    886     For:Sunday Holidays AllOtherDays,  !- Field 68
    887     Until: 24:00,            !- Field 69
    888     0.0;                     !- Field 70
    889 
    890 Schedule:Compact,
    891     BLDG_SWH_SCH,            !- Name
    892     Fraction,                !- Schedule Type Limits Name
    893     Through: 12/31,          !- Field 1
    894     For: Weekdays SummerDesignDay,  !- Field 2
    895     Until: 05:00,            !- Field 3
    896     0.00,                    !- Field 4
    897     Until: 06:00,            !- Field 5
    898     0.00,                    !- Field 6
    899     Until: 07:00,            !- Field 7
    900     0.07,                    !- Field 8
    901     Until: 08:00,            !- Field 9
    902     0.19,                    !- Field 10
    903     Until: 09:00,            !- Field 11
    904     0.35,                    !- Field 12
    905     Until: 10:00,            !- Field 13
    906     0.38,                    !- Field 14
    907     Until: 11:00,            !- Field 15
    908     0.39,                    !- Field 16
    909     Until: 12:00,            !- Field 17
    910     0.47,                    !- Field 18
    911     Until: 13:00,            !- Field 19
    912     0.57,                    !- Field 20
    913     Until: 14:00,            !- Field 21
    914     0.54,                    !- Field 22
    915     Until: 15:00,            !- Field 23
    916     0.34,                    !- Field 24
    917     Until: 16:00,            !- Field 25
    918     0.33,                    !- Field 26
    919     Until: 17:00,            !- Field 27
    920     0.44,                    !- Field 28
    921     Until: 18:00,            !- Field 29
    922     0.26,                    !- Field 30
    923     Until: 19:00,            !- Field 31
    924     0.21,                    !- Field 32
    925     Until: 20:00,            !- Field 33
    926     0.15,                    !- Field 34
    927     Until: 21:00,            !- Field 35
    928     0.17,                    !- Field 36
    929     Until: 22:00,            !- Field 37
    930     0.08,                    !- Field 38
    931     Until: 24:00,            !- Field 39
    932     0.05,                    !- Field 40
    933     For: Saturday WinterDesignDay,  !- Field 41
    934     Until: 05:00,            !- Field 42
    935     0.00,                    !- Field 43
    936     Until: 06:00,            !- Field 44
    937     0.00,                    !- Field 45
    938     Until: 07:00,            !- Field 46
    939     0.07,                    !- Field 47
    940     Until: 08:00,            !- Field 48
    941     0.11,                    !- Field 49
    942     Until: 09:00,            !- Field 50
    943     0.15,                    !- Field 51
    944     Until: 10:00,            !- Field 52
    945     0.21,                    !- Field 53
    946     Until: 11:00,            !- Field 54
    947     0.19,                    !- Field 55
    948     Until: 12:00,            !- Field 56
    949     0.23,                    !- Field 57
    950     Until: 13:00,            !- Field 58
    951     0.20,                    !- Field 59
    952     Until: 14:00,            !- Field 60
    953     0.19,                    !- Field 61
    954     Until: 15:00,            !- Field 62
    955     0.15,                    !- Field 63
    956     Until: 16:00,            !- Field 64
    957     0.13,                    !- Field 65
    958     Until: 17:00,            !- Field 66
    959     0.14,                    !- Field 67
    960     Until: 19:00,            !- Field 68
    961     0.07,                    !- Field 69
    962     Until: 22:00,            !- Field 70
    963     0.00,                    !- Field 71
    964     Until: 24:00,            !- Field 72
    965     0.00,                    !- Field 73
    966     For:Sunday Holidays AllOtherDays,  !- Field 74
    967     Until: 05:00,            !- Field 75
    968     0.00,                    !- Field 76
    969     Until: 06:00,            !- Field 77
    970     0.00,                    !- Field 78
    971     Until: 11:00,            !- Field 79
    972     0.04,                    !- Field 80
    973     Until: 13:00,            !- Field 81
    974     0.06,                    !- Field 82
    975     Until: 14:00,            !- Field 83
    976     0.09,                    !- Field 84
    977     Until: 15:00,            !- Field 85
    978     0.06,                    !- Field 86
    979     Until: 18:00,            !- Field 87
    980     0.04,                    !- Field 88
    981     Until: 22:00,            !- Field 89
    982     0.00,                    !- Field 90
    983     Until: 24:00,            !- Field 91
    984     0.00;                    !- Field 92
    985 
    986 Schedule:Compact,
    987     ACTIVITY_SCH,            !- Name
    988     Any Number,              !- Schedule Type Limits Name
    989     Through: 12/31,          !- Field 1
    990     For: AllDays,            !- Field 2
    991     Until: 24:00,            !- Field 3
    992     120.;                    !- Field 4
    993 
    994 Schedule:Compact,
    995     WORK_EFF_SCH,            !- Name
    996     Fraction,                !- Schedule Type Limits Name
    997     Through: 12/31,          !- Field 1
    998     For: AllDays,            !- Field 2
    999     Until: 24:00,            !- Field 3
   1000     0.0;                     !- Field 4
   1001 
   1002 Schedule:Compact,
   1003     AIR_VELO_SCH,            !- Name
   1004     Any Number,              !- Schedule Type Limits Name
   1005     Through: 12/31,          !- Field 1
   1006     For: AllDays,            !- Field 2
   1007     Until: 24:00,            !- Field 3
   1008     0.2;                     !- Field 4
   1009 
   1010 Schedule:Compact,
   1011     CLOTHING_SCH,            !- Name
   1012     Any Number,              !- Schedule Type Limits Name
   1013     Through: 04/30,          !- Field 1
   1014     For: AllDays,            !- Field 2
   1015     Until: 24:00,            !- Field 3
   1016     1.0,                     !- Field 4
   1017     Through: 09/30,          !- Field 5
   1018     For: AllDays,            !- Field 6
   1019     Until: 24:00,            !- Field 7
   1020     0.5,                     !- Field 8
   1021     Through: 12/31,          !- Field 9
   1022     For: AllDays,            !- Field 10
   1023     Until: 24:00,            !- Field 11
   1024     1.0;                     !- Field 12
   1025 
   1026 Schedule:Compact,
   1027     SHADING_SCH,             !- Name
   1028     Any Number,              !- Schedule Type Limits Name
   1029     Through: 12/31,          !- Field 1
   1030     For: AllDays,            !- Field 2
   1031     Until: 24:00,            !- Field 3
   1032     0.0;                     !- Field 4
   1033 
   1034 Schedule:Compact,
   1035     PlantOnSched,            !- Name
   1036     On/Off,                  !- Schedule Type Limits Name
   1037     Through: 12/31,          !- Field 1
   1038     For: AllDays,            !- Field 2
   1039     Until: 24:00,            !- Field 3
   1040     1.0;                     !- Field 4
   1041 
   1042 Schedule:Compact,
   1043     FAN_SCH,                 !- Name
   1044     Fraction,                !- Schedule Type Limits Name
   1045     Through: 12/31,          !- Field 1
   1046     For: AllDays,            !- Field 2
   1047     Until: 24:00,            !- Field 3
   1048     1.0;                     !- Field 4
   1049 
   1050 Schedule:Compact,
   1051     ReheatCoilAvailSched,    !- Name
   1052     Fraction,                !- Schedule Type Limits Name
   1053     Through: 12/31,          !- Field 1
   1054     For: AllDays,            !- Field 2
   1055     Until: 24:00,            !- Field 3
   1056     1.0;                     !- Field 4
   1057 
   1058 Schedule:Compact,
   1059     CoolingCoilAvailSched,   !- Name
   1060     Fraction,                !- Schedule Type Limits Name
   1061     Through: 12/31,          !- Field 1
   1062     For: AllDays,            !- Field 2
   1063     Until: 24:00,            !- Field 3
   1064     1.0;                     !- Field 4
   1065 
   1066 Schedule:Compact,
   1067     HTGSETP_SCH_YES_OPTIMUM, !- Name
   1068     Temperature,             !- Schedule Type Limits Name
   1069     Through: 12/31,          !- Field 1
   1070     For: WinterDesignDay,    !- Field 2
   1071     Until: 05:00,            !- Field 3
   1072     15.6,                    !- Field 4
   1073     Until: 06:00,            !- Field 5
   1074     17.6,                    !- Field 6
   1075     Until: 07:00,            !- Field 7
   1076     19.6,                    !- Field 8
   1077     Until: 22:00,            !- Field 9
   1078     21.0,                    !- Field 10
   1079     Until: 24:00,            !- Field 11
   1080     15.6,                    !- Field 12
   1081     For: Weekdays,           !- Field 13
   1082     Until: 05:00,            !- Field 14
   1083     15.6,                    !- Field 15
   1084     Until: 06:00,            !- Field 16
   1085     17.8,                    !- Field 17
   1086     Until: 07:00,            !- Field 18
   1087     20.0,                    !- Field 19
   1088     Until: 22:00,            !- Field 20
   1089     21.0,                    !- Field 21
   1090     Until: 24:00,            !- Field 22
   1091     15.6,                    !- Field 23
   1092     For SummerDesignDay,     !- Field 24
   1093     Until: 24:00,            !- Field 25
   1094     15.6,                    !- Field 26
   1095     For: Saturday,           !- Field 27
   1096     Until: 05:00,            !- Field 28
   1097     15.6,                    !- Field 29
   1098     Until: 06:00,            !- Field 30
   1099     17.8,                    !- Field 31
   1100     Until: 07:00,            !- Field 32
   1101     20.0,                    !- Field 33
   1102     Until: 17:00,            !- Field 34
   1103     21.0,                    !- Field 35
   1104     Until: 24:00,            !- Field 36
   1105     15.6,                    !- Field 37
   1106     For:Sunday Holidays AllOtherDays,  !- Field 38
   1107     Until: 24:00,            !- Field 39
   1108     15.6;                    !- Field 40
   1109 
   1110 Schedule:Compact,
   1111     HTGSETP_SCH_YES_OPTIMUM_ORIGINAL,  !- Name
   1112     Temperature,             !- Schedule Type Limits Name
   1113     Through: 12/31,          !- Field 1
   1114     For: WinterDesignDay,    !- Field 2
   1115     Until: 05:00,            !- Field 3
   1116     15.6,                    !- Field 4
   1117     Until: 06:00,            !- Field 5
   1118     17.6,                    !- Field 6
   1119     Until: 07:00,            !- Field 7
   1120     19.6,                    !- Field 8
   1121     Until: 22:00,            !- Field 9
   1122     21.0,                    !- Field 10
   1123     Until: 24:00,            !- Field 11
   1124     15.6,                    !- Field 12
   1125     For: Weekdays,           !- Field 13
   1126     Until: 05:00,            !- Field 14
   1127     15.6,                    !- Field 15
   1128     Until: 06:00,            !- Field 16
   1129     17.8,                    !- Field 17
   1130     Until: 07:00,            !- Field 18
   1131     20.0,                    !- Field 19
   1132     Until: 22:00,            !- Field 20
   1133     21.0,                    !- Field 21
   1134     Until: 24:00,            !- Field 22
   1135     15.6,                    !- Field 23
   1136     For SummerDesignDay,     !- Field 24
   1137     Until: 24:00,            !- Field 25
   1138     15.6,                    !- Field 26
   1139     For: Saturday,           !- Field 27
   1140     Until: 05:00,            !- Field 28
   1141     15.6,                    !- Field 29
   1142     Until: 06:00,            !- Field 30
   1143     17.8,                    !- Field 31
   1144     Until: 07:00,            !- Field 32
   1145     20.0,                    !- Field 33
   1146     Until: 17:00,            !- Field 34
   1147     21.0,                    !- Field 35
   1148     Until: 24:00,            !- Field 36
   1149     15.6,                    !- Field 37
   1150     For:Sunday Holidays AllOtherDays,  !- Field 38
   1151     Until: 24:00,            !- Field 39
   1152     15.6;                    !- Field 40
   1153 
   1154 Schedule:Compact,
   1155     HTGSETP_SCH_NO_OPTIMUM,  !- Name
   1156     Temperature,             !- Schedule Type Limits Name
   1157     Through: 12/31,          !- Field 1
   1158     For: WinterDesignDay,    !- Field 2
   1159     Until: 05:00,            !- Field 3
   1160     15.6,                    !- Field 4
   1161     Until: 06:00,            !- Field 5
   1162     17.6,                    !- Field 6
   1163     Until: 07:00,            !- Field 7
   1164     19.6,                    !- Field 8
   1165     Until: 22:00,            !- Field 9
   1166     21.0,                    !- Field 10
   1167     Until: 24:00,            !- Field 11
   1168     15.6,                    !- Field 12
   1169     For: Weekdays,           !- Field 13
   1170     Until: 05:00,            !- Field 14
   1171     15.6,                    !- Field 15
   1172     Until: 06:00,            !- Field 16
   1173     21.0,                    !- Field 17
   1174     Until: 07:00,            !- Field 18
   1175     21.0,                    !- Field 19
   1176     Until: 22:00,            !- Field 20
   1177     21.0,                    !- Field 21
   1178     Until: 24:00,            !- Field 22
   1179     15.6,                    !- Field 23
   1180     For SummerDesignDay,     !- Field 24
   1181     Until: 24:00,            !- Field 25
   1182     15.6,                    !- Field 26
   1183     For: Saturday,           !- Field 27
   1184     Until: 05:00,            !- Field 28
   1185     15.6,                    !- Field 29
   1186     Until: 06:00,            !- Field 30
   1187     21.0,                    !- Field 31
   1188     Until: 07:00,            !- Field 32
   1189     21.0,                    !- Field 33
   1190     Until: 17:00,            !- Field 34
   1191     21.0,                    !- Field 35
   1192     Until: 24:00,            !- Field 36
   1193     15.6,                    !- Field 37
   1194     For:Sunday Holidays AllOtherDays,  !- Field 38
   1195     Until: 24:00,            !- Field 39
   1196     15.6;                    !- Field 40
   1197 
   1198 Schedule:Compact,
   1199     HTGSETP_SCH_PACU_VAV_bot,!- Name
   1200     Temperature,             !- Schedule Type Limits Name
   1201     Through: 12/31,          !- Field 1
   1202     For: WinterDesignDay,    !- Field 2
   1203     Until: 05:00,            !- Field 3
   1204     15.6,                    !- Field 4
   1205     Until: 06:00,            !- Field 5
   1206     17.6,                    !- Field 6
   1207     Until: 07:00,            !- Field 7
   1208     19.6,                    !- Field 8
   1209     Until: 22:00,            !- Field 9
   1210     21.0,                    !- Field 10
   1211     Until: 24:00,            !- Field 11
   1212     15.6,                    !- Field 12
   1213     For: Weekdays,           !- Field 13
   1214     Until: 05:00,            !- Field 14
   1215     15.6,                    !- Field 15
   1216     Until: 06:00,            !- Field 16
   1217     21.0,                    !- Field 17
   1218     Until: 07:00,            !- Field 18
   1219     21.0,                    !- Field 19
   1220     Until: 22:00,            !- Field 20
   1221     21.0,                    !- Field 21
   1222     Until: 24:00,            !- Field 22
   1223     15.6,                    !- Field 23
   1224     For SummerDesignDay,     !- Field 24
   1225     Until: 24:00,            !- Field 25
   1226     15.6,                    !- Field 26
   1227     For: Saturday,           !- Field 27
   1228     Until: 05:00,            !- Field 28
   1229     15.6,                    !- Field 29
   1230     Until: 06:00,            !- Field 30
   1231     21.0,                    !- Field 31
   1232     Until: 07:00,            !- Field 32
   1233     21.0,                    !- Field 33
   1234     Until: 17:00,            !- Field 34
   1235     21.0,                    !- Field 35
   1236     Until: 24:00,            !- Field 36
   1237     15.6,                    !- Field 37
   1238     For:Sunday Holidays AllOtherDays,  !- Field 38
   1239     Until: 24:00,            !- Field 39
   1240     15.6;                    !- Field 40
   1241 
   1242 Schedule:Compact,
   1243     HTGSETP_SCH_PACU_VAV_mid,!- Name
   1244     Temperature,             !- Schedule Type Limits Name
   1245     Through: 12/31,          !- Field 1
   1246     For: WinterDesignDay,    !- Field 2
   1247     Until: 05:00,            !- Field 3
   1248     15.6,                    !- Field 4
   1249     Until: 06:00,            !- Field 5
   1250     17.6,                    !- Field 6
   1251     Until: 07:00,            !- Field 7
   1252     19.6,                    !- Field 8
   1253     Until: 22:00,            !- Field 9
   1254     21.0,                    !- Field 10
   1255     Until: 24:00,            !- Field 11
   1256     15.6,                    !- Field 12
   1257     For: Weekdays,           !- Field 13
   1258     Until: 05:00,            !- Field 14
   1259     15.6,                    !- Field 15
   1260     Until: 06:00,            !- Field 16
   1261     21.0,                    !- Field 17
   1262     Until: 07:00,            !- Field 18
   1263     21.0,                    !- Field 19
   1264     Until: 22:00,            !- Field 20
   1265     21.0,                    !- Field 21
   1266     Until: 24:00,            !- Field 22
   1267     15.6,                    !- Field 23
   1268     For SummerDesignDay,     !- Field 24
   1269     Until: 24:00,            !- Field 25
   1270     15.6,                    !- Field 26
   1271     For: Saturday,           !- Field 27
   1272     Until: 05:00,            !- Field 28
   1273     15.6,                    !- Field 29
   1274     Until: 06:00,            !- Field 30
   1275     21.0,                    !- Field 31
   1276     Until: 07:00,            !- Field 32
   1277     21.0,                    !- Field 33
   1278     Until: 17:00,            !- Field 34
   1279     21.0,                    !- Field 35
   1280     Until: 24:00,            !- Field 36
   1281     15.6,                    !- Field 37
   1282     For:Sunday Holidays AllOtherDays,  !- Field 38
   1283     Until: 24:00,            !- Field 39
   1284     15.6;                    !- Field 40
   1285 
   1286 Schedule:Compact,
   1287     HTGSETP_SCH_PACU_VAV_top,!- Name
   1288     Temperature,             !- Schedule Type Limits Name
   1289     Through: 12/31,          !- Field 1
   1290     For: WinterDesignDay,    !- Field 2
   1291     Until: 05:00,            !- Field 3
   1292     15.6,                    !- Field 4
   1293     Until: 06:00,            !- Field 5
   1294     17.6,                    !- Field 6
   1295     Until: 07:00,            !- Field 7
   1296     19.6,                    !- Field 8
   1297     Until: 22:00,            !- Field 9
   1298     21.0,                    !- Field 10
   1299     Until: 24:00,            !- Field 11
   1300     15.6,                    !- Field 12
   1301     For: Weekdays,           !- Field 13
   1302     Until: 05:00,            !- Field 14
   1303     15.6,                    !- Field 15
   1304     Until: 06:00,            !- Field 16
   1305     21.0,                    !- Field 17
   1306     Until: 07:00,            !- Field 18
   1307     21.0,                    !- Field 19
   1308     Until: 22:00,            !- Field 20
   1309     21.0,                    !- Field 21
   1310     Until: 24:00,            !- Field 22
   1311     15.6,                    !- Field 23
   1312     For SummerDesignDay,     !- Field 24
   1313     Until: 24:00,            !- Field 25
   1314     15.6,                    !- Field 26
   1315     For: Saturday,           !- Field 27
   1316     Until: 05:00,            !- Field 28
   1317     15.6,                    !- Field 29
   1318     Until: 06:00,            !- Field 30
   1319     21.0,                    !- Field 31
   1320     Until: 07:00,            !- Field 32
   1321     21.0,                    !- Field 33
   1322     Until: 17:00,            !- Field 34
   1323     21.0,                    !- Field 35
   1324     Until: 24:00,            !- Field 36
   1325     15.6,                    !- Field 37
   1326     For:Sunday Holidays AllOtherDays,  !- Field 38
   1327     Until: 24:00,            !- Field 39
   1328     15.6;                    !- Field 40
   1329 
   1330 Schedule:Compact,
   1331     CLGSETP_SCH_YES_OPTIMUM, !- Name
   1332     Temperature,             !- Schedule Type Limits Name
   1333     Through: 12/31,          !- Field 1
   1334     For: SummerDesignDay,    !- Field 2
   1335     Until: 05:00,            !- Field 3
   1336     26.7,                    !- Field 4
   1337     Until: 06:00,            !- Field 5
   1338     25.7,                    !- Field 6
   1339     Until: 07:00,            !- Field 7
   1340     25.0,                    !- Field 8
   1341     Until: 22:00,            !- Field 9
   1342     24.0,                    !- Field 10
   1343     Until: 24:00,            !- Field 11
   1344     26.7,                    !- Field 12
   1345     For: Weekdays,           !- Field 13
   1346     Until: 05:00,            !- Field 14
   1347     26.7,                    !- Field 15
   1348     Until: 06:00,            !- Field 16
   1349     25.6,                    !- Field 17
   1350     Until: 07:00,            !- Field 18
   1351     25.0,                    !- Field 19
   1352     Until: 22:00,            !- Field 20
   1353     24.0,                    !- Field 21
   1354     Until: 24:00,            !- Field 22
   1355     26.7,                    !- Field 23
   1356     For: Saturday,           !- Field 24
   1357     Until: 05:00,            !- Field 25
   1358     26.7,                    !- Field 26
   1359     Until: 06:00,            !- Field 27
   1360     25.7,                    !- Field 28
   1361     Until: 07:00,            !- Field 29
   1362     25.0,                    !- Field 30
   1363     Until: 17:00,            !- Field 31
   1364     24.0,                    !- Field 32
   1365     Until: 24:00,            !- Field 33
   1366     26.7,                    !- Field 34
   1367     For WinterDesignDay,     !- Field 35
   1368     Until: 24:00,            !- Field 36
   1369     26.7,                    !- Field 37
   1370     For:Sunday Holidays AllOtherDays,  !- Field 38
   1371     Until: 24:00,            !- Field 39
   1372     26.7;                    !- Field 40
   1373 
   1374 Schedule:Compact,
   1375     CLGSETP_SCH_YES_OPTIMUM_ORIGINAL,  !- Name
   1376     Temperature,             !- Schedule Type Limits Name
   1377     Through: 12/31,          !- Field 1
   1378     For: SummerDesignDay,    !- Field 2
   1379     Until: 05:00,            !- Field 3
   1380     26.7,                    !- Field 4
   1381     Until: 06:00,            !- Field 5
   1382     25.7,                    !- Field 6
   1383     Until: 07:00,            !- Field 7
   1384     25.0,                    !- Field 8
   1385     Until: 22:00,            !- Field 9
   1386     24.0,                    !- Field 10
   1387     Until: 24:00,            !- Field 11
   1388     26.7,                    !- Field 12
   1389     For: Weekdays,           !- Field 13
   1390     Until: 05:00,            !- Field 14
   1391     26.7,                    !- Field 15
   1392     Until: 06:00,            !- Field 16
   1393     25.6,                    !- Field 17
   1394     Until: 07:00,            !- Field 18
   1395     25.0,                    !- Field 19
   1396     Until: 22:00,            !- Field 20
   1397     24.0,                    !- Field 21
   1398     Until: 24:00,            !- Field 22
   1399     26.7,                    !- Field 23
   1400     For: Saturday,           !- Field 24
   1401     Until: 05:00,            !- Field 25
   1402     26.7,                    !- Field 26
   1403     Until: 06:00,            !- Field 27
   1404     25.7,                    !- Field 28
   1405     Until: 07:00,            !- Field 29
   1406     25.0,                    !- Field 30
   1407     Until: 17:00,            !- Field 31
   1408     24.0,                    !- Field 32
   1409     Until: 24:00,            !- Field 33
   1410     26.7,                    !- Field 34
   1411     For WinterDesignDay,     !- Field 35
   1412     Until: 24:00,            !- Field 36
   1413     26.7,                    !- Field 37
   1414     For:Sunday Holidays AllOtherDays,  !- Field 38
   1415     Until: 24:00,            !- Field 39
   1416     26.7;                    !- Field 40
   1417 
   1418 Schedule:Compact,
   1419     CLGSETP_SCH_NO_OPTIMUM,  !- Name
   1420     Temperature,             !- Schedule Type Limits Name
   1421     Through: 12/31,          !- Field 1
   1422     For: SummerDesignDay,    !- Field 2
   1423     Until: 05:00,            !- Field 3
   1424     26.7,                    !- Field 4
   1425     Until: 06:00,            !- Field 5
   1426     25.7,                    !- Field 6
   1427     Until: 07:00,            !- Field 7
   1428     25.0,                    !- Field 8
   1429     Until: 22:00,            !- Field 9
   1430     24.0,                    !- Field 10
   1431     Until: 24:00,            !- Field 11
   1432     26.7,                    !- Field 12
   1433     For: Weekdays,           !- Field 13
   1434     Until: 05:00,            !- Field 14
   1435     26.7,                    !- Field 15
   1436     Until: 06:00,            !- Field 16
   1437     24.0,                    !- Field 17
   1438     Until: 07:00,            !- Field 18
   1439     24.0,                    !- Field 19
   1440     Until: 22:00,            !- Field 20
   1441     24.0,                    !- Field 21
   1442     Until: 24:00,            !- Field 22
   1443     26.7,                    !- Field 23
   1444     For: Saturday,           !- Field 24
   1445     Until: 05:00,            !- Field 25
   1446     26.7,                    !- Field 26
   1447     Until: 06:00,            !- Field 27
   1448     24.0,                    !- Field 28
   1449     Until: 07:00,            !- Field 29
   1450     24.0,                    !- Field 30
   1451     Until: 17:00,            !- Field 31
   1452     24.0,                    !- Field 32
   1453     Until: 24:00,            !- Field 33
   1454     26.7,                    !- Field 34
   1455     For WinterDesignDay,     !- Field 35
   1456     Until: 24:00,            !- Field 36
   1457     26.7,                    !- Field 37
   1458     For:Sunday Holidays AllOtherDays,  !- Field 38
   1459     Until: 24:00,            !- Field 39
   1460     26.7;                    !- Field 40
   1461 
   1462 Schedule:Compact,
   1463     CLGSETP_SCH_PACU_VAV_bot,!- Name
   1464     Temperature,             !- Schedule Type Limits Name
   1465     Through: 12/31,          !- Field 1
   1466     For: SummerDesignDay,    !- Field 2
   1467     Until: 05:00,            !- Field 3
   1468     26.7,                    !- Field 4
   1469     Until: 06:00,            !- Field 5
   1470     25.7,                    !- Field 6
   1471     Until: 07:00,            !- Field 7
   1472     25.0,                    !- Field 8
   1473     Until: 22:00,            !- Field 9
   1474     24.0,                    !- Field 10
   1475     Until: 24:00,            !- Field 11
   1476     26.7,                    !- Field 12
   1477     For: Weekdays,           !- Field 13
   1478     Until: 05:00,            !- Field 14
   1479     26.7,                    !- Field 15
   1480     Until: 06:00,            !- Field 16
   1481     24.0,                    !- Field 17
   1482     Until: 07:00,            !- Field 18
   1483     24.0,                    !- Field 19
   1484     Until: 22:00,            !- Field 20
   1485     24.0,                    !- Field 21
   1486     Until: 24:00,            !- Field 22
   1487     26.7,                    !- Field 23
   1488     For: Saturday,           !- Field 24
   1489     Until: 05:00,            !- Field 25
   1490     26.7,                    !- Field 26
   1491     Until: 06:00,            !- Field 27
   1492     24.0,                    !- Field 28
   1493     Until: 07:00,            !- Field 29
   1494     24.0,                    !- Field 30
   1495     Until: 17:00,            !- Field 31
   1496     24.0,                    !- Field 32
   1497     Until: 24:00,            !- Field 33
   1498     26.7,                    !- Field 34
   1499     For WinterDesignDay,     !- Field 35
   1500     Until: 24:00,            !- Field 36
   1501     26.7,                    !- Field 37
   1502     For:Sunday Holidays AllOtherDays,  !- Field 38
   1503     Until: 24:00,            !- Field 39
   1504     26.7;                    !- Field 40
   1505 
   1506 Schedule:Compact,
   1507     CLGSETP_SCH_PACU_VAV_mid,!- Name
   1508     Temperature,             !- Schedule Type Limits Name
   1509     Through: 12/31,          !- Field 1
   1510     For: SummerDesignDay,    !- Field 2
   1511     Until: 05:00,            !- Field 3
   1512     26.7,                    !- Field 4
   1513     Until: 06:00,            !- Field 5
   1514     25.7,                    !- Field 6
   1515     Until: 07:00,            !- Field 7
   1516     25.0,                    !- Field 8
   1517     Until: 22:00,            !- Field 9
   1518     24.0,                    !- Field 10
   1519     Until: 24:00,            !- Field 11
   1520     26.7,                    !- Field 12
   1521     For: Weekdays,           !- Field 13
   1522     Until: 05:00,            !- Field 14
   1523     26.7,                    !- Field 15
   1524     Until: 06:00,            !- Field 16
   1525     24.0,                    !- Field 17
   1526     Until: 07:00,            !- Field 18
   1527     24.0,                    !- Field 19
   1528     Until: 22:00,            !- Field 20
   1529     24.0,                    !- Field 21
   1530     Until: 24:00,            !- Field 22
   1531     26.7,                    !- Field 23
   1532     For: Saturday,           !- Field 24
   1533     Until: 05:00,            !- Field 25
   1534     26.7,                    !- Field 26
   1535     Until: 06:00,            !- Field 27
   1536     24.0,                    !- Field 28
   1537     Until: 07:00,            !- Field 29
   1538     24.0,                    !- Field 30
   1539     Until: 17:00,            !- Field 31
   1540     24.0,                    !- Field 32
   1541     Until: 24:00,            !- Field 33
   1542     26.7,                    !- Field 34
   1543     For WinterDesignDay,     !- Field 35
   1544     Until: 24:00,            !- Field 36
   1545     26.7,                    !- Field 37
   1546     For:Sunday Holidays AllOtherDays,  !- Field 38
   1547     Until: 24:00,            !- Field 39
   1548     26.7;                    !- Field 40
   1549 
   1550 Schedule:Compact,
   1551     CLGSETP_SCH_PACU_VAV_top,!- Name
   1552     Temperature,             !- Schedule Type Limits Name
   1553     Through: 12/31,          !- Field 1
   1554     For: SummerDesignDay,    !- Field 2
   1555     Until: 05:00,            !- Field 3
   1556     26.7,                    !- Field 4
   1557     Until: 06:00,            !- Field 5
   1558     25.7,                    !- Field 6
   1559     Until: 07:00,            !- Field 7
   1560     25.0,                    !- Field 8
   1561     Until: 22:00,            !- Field 9
   1562     24.0,                    !- Field 10
   1563     Until: 24:00,            !- Field 11
   1564     26.7,                    !- Field 12
   1565     For: Weekdays,           !- Field 13
   1566     Until: 05:00,            !- Field 14
   1567     26.7,                    !- Field 15
   1568     Until: 06:00,            !- Field 16
   1569     24.0,                    !- Field 17
   1570     Until: 07:00,            !- Field 18
   1571     24.0,                    !- Field 19
   1572     Until: 22:00,            !- Field 20
   1573     24.0,                    !- Field 21
   1574     Until: 24:00,            !- Field 22
   1575     26.7,                    !- Field 23
   1576     For: Saturday,           !- Field 24
   1577     Until: 05:00,            !- Field 25
   1578     26.7,                    !- Field 26
   1579     Until: 06:00,            !- Field 27
   1580     24.0,                    !- Field 28
   1581     Until: 07:00,            !- Field 29
   1582     24.0,                    !- Field 30
   1583     Until: 17:00,            !- Field 31
   1584     24.0,                    !- Field 32
   1585     Until: 24:00,            !- Field 33
   1586     26.7,                    !- Field 34
   1587     For WinterDesignDay,     !- Field 35
   1588     Until: 24:00,            !- Field 36
   1589     26.7,                    !- Field 37
   1590     For:Sunday Holidays AllOtherDays,  !- Field 38
   1591     Until: 24:00,            !- Field 39
   1592     26.7;                    !- Field 40
   1593 
   1594 Schedule:Compact,
   1595     CLGSETP_SCH_NO_SETBACK,  !- Name
   1596     Temperature,             !- Schedule Type Limits Name
   1597     Through: 12/31,          !- Field 1
   1598     For: SummerDesignDay,    !- Field 2
   1599     Until: 05:00,            !- Field 3
   1600     26.7,                    !- Field 4
   1601     Until: 06:00,            !- Field 5
   1602     25.7,                    !- Field 6
   1603     Until: 07:00,            !- Field 7
   1604     25.0,                    !- Field 8
   1605     Until: 22:00,            !- Field 9
   1606     24.0,                    !- Field 10
   1607     Until: 24:00,            !- Field 11
   1608     26.7,                    !- Field 12
   1609     For: Weekdays,           !- Field 13
   1610     Until: 05:00,            !- Field 14
   1611     24.0,                    !- Field 15
   1612     Until: 06:00,            !- Field 16
   1613     24.0,                    !- Field 17
   1614     Until: 07:00,            !- Field 18
   1615     24.0,                    !- Field 19
   1616     Until: 22:00,            !- Field 20
   1617     24.0,                    !- Field 21
   1618     Until: 24:00,            !- Field 22
   1619     24.0,                    !- Field 23
   1620     For: Saturday,           !- Field 24
   1621     Until: 05:00,            !- Field 25
   1622     24.0,                    !- Field 26
   1623     Until: 06:00,            !- Field 27
   1624     24.0,                    !- Field 28
   1625     Until: 07:00,            !- Field 29
   1626     24.0,                    !- Field 30
   1627     Until: 17:00,            !- Field 31
   1628     24.0,                    !- Field 32
   1629     Until: 24:00,            !- Field 33
   1630     24.0,                    !- Field 34
   1631     For WinterDesignDay,     !- Field 35
   1632     Until: 24:00,            !- Field 36
   1633     24.0,                    !- Field 37
   1634     For:Sunday Holidays AllOtherDays,  !- Field 38
   1635     Until: 24:00,            !- Field 39
   1636     24.0;                    !- Field 40
   1637 
   1638 Schedule:Compact,
   1639     Humidity Setpoint Schedule,  !- Name
   1640     Humidity,                !- Schedule Type Limits Name
   1641     Through: 12/31,          !- Field 1
   1642     For: Weekdays SummerDesignDay,  !- Field 2
   1643     Until: 24:00,            !- Field 3
   1644     50,                      !- Field 4
   1645     For: Saturday WinterDesignDay,  !- Field 5
   1646     Until: 24:00,            !- Field 6
   1647     50,                      !- Field 7
   1648     For:Sunday Holidays AllOtherDays,  !- Field 8
   1649     Until: 24:00,            !- Field 9
   1650     50;                      !- Field 10
   1651 
   1652 Schedule:Compact,
   1653     MinOA_MotorizedDamper_Sched,  !- Name
   1654     fraction,                !- Schedule Type Limits Name
   1655     Through: 12/31,          !- Field 1
   1656     For: Weekdays SummerDesignDay,  !- Field 2
   1657     Until: 07:00,            !- Field 3
   1658     0.0,                     !- Field 4
   1659     Until: 22:00,            !- Field 5
   1660     1.0,                     !- Field 6
   1661     Until: 24:00,            !- Field 7
   1662     0.0,                     !- Field 8
   1663     For: Saturday WinterDesignDay,  !- Field 9
   1664     Until: 07:00,            !- Field 10
   1665     0.0,                     !- Field 11
[...]
  12291     Maximum,                 !- Aggregation Type for Variable or Meter 2
  12292     Site Outdoor Air Drybulb Temperature,  !- Variable or Meter 3 Name
  12293     ValueWhenMaximumOrMinimum;  !- Aggregation Type for Variable or Meter 3
  12294 
  12295 Output:Table:Monthly,
  12296     Building Loads - Electric,  !- Name
  12297     2,                       !- Digits After Decimal
  12298     Zone Lights Electric Energy,  !- Variable or Meter 1 Name
  12299     SumOrAverage,            !- Aggregation Type for Variable or Meter 1
  12300     Zone Lights Electric Energy,  !- Variable or Meter 2 Name
  12301     Maximum,                 !- Aggregation Type for Variable or Meter 2
  12302     Zone Electric Equipment Electric Energy,  !- Variable or Meter 3 Name
  12303     SumOrAverage,            !- Aggregation Type for Variable or Meter 3
  12304     Zone Electric Equipment Electric Energy,  !- Variable or Meter 4 Name
  12305     Maximum;                 !- Aggregation Type for Variable or Meter 4
  12306 
  12307 Output:Table:Monthly,
  12308     Space Loads,             !- Name
  12309     2,                       !- Digits After Decimal
  12310     Zone People Total Heating Energy,  !- Variable or Meter 1 Name
  12311     SumOrAverage,            !- Aggregation Type for Variable or Meter 1
  12312     Zone Lights Total Heating Energy,  !- Variable or Meter 2 Name
  12313     SumOrAverage,            !- Aggregation Type for Variable or Meter 2
  12314     Zone Electric Equipment Total Heating Energy,  !- Variable or Meter 3 Name
  12315     SumOrAverage,            !- Aggregation Type for Variable or Meter 3
  12316     Zone Infiltration Sensible Heat Gain Energy,  !- Variable or Meter 4 Name
  12317     SumOrAverage,            !- Aggregation Type for Variable or Meter 4
  12318     Zone Infiltration Sensible Heat Loss Energy,  !- Variable or Meter 5 Name
  12319     SumOrAverage;            !- Aggregation Type for Variable or Meter 5
  12320 
  12321 Output:Table:Monthly,
  12322     Energy Consumption - Electricity & Natural Gas,  !- Name
  12323     2,                       !- Digits After Decimal
  12324     Electricity:Building,    !- Variable or Meter 1 Name
  12325     SumOrAverage,            !- Aggregation Type for Variable or Meter 1
  12326     Electricity:Building,    !- Variable or Meter 2 Name
  12327     Maximum,                 !- Aggregation Type for Variable or Meter 2
  12328     Gas:Building,            !- Variable or Meter 3 Name
  12329     SumOrAverage,            !- Aggregation Type for Variable or Meter 3
  12330     Gas:Building,            !- Variable or Meter 4 Name
  12331     Maximum;                 !- Aggregation Type for Variable or Meter 4
  12332 
  12333 Output:Table:Monthly,
  12334     Building Energy Performance - Electricity,  !- Name
  12335     2,                       !- Digits After Decimal
  12336     InteriorLights:Electricity,  !- Variable or Meter 1 Name
  12337     SumOrAverage,            !- Aggregation Type for Variable or Meter 1
  12338     TaskLights:InteriorLights:Electricity,  !- Variable or Meter 2 Name
  12339     SumOrAverage,            !- Aggregation Type for Variable or Meter 2
  12340     ExteriorLights:Electricity,  !- Variable or Meter 3 Name
  12341     SumOrAverage,            !- Aggregation Type for Variable or Meter 3
  12342     General:InteriorEquipment:Electricity,  !- Variable or Meter 4 Name
  12343     SumOrAverage,            !- Aggregation Type for Variable or Meter 4
  12344     ExteriorEquipment:Electricity,  !- Variable or Meter 5 Name
  12345     SumOrAverage,            !- Aggregation Type for Variable or Meter 5
  12346     Fans:Electricity,        !- Variable or Meter 6 Name
  12347     SumOrAverage,            !- Aggregation Type for Variable or Meter 6
  12348     Pumps:Electricity,       !- Variable or Meter 7 Name
  12349     SumOrAverage,            !- Aggregation Type for Variable or Meter 7
  12350     Heating:Electricity,     !- Variable or Meter 8 Name
  12351     SumOrAverage,            !- Aggregation Type for Variable or Meter 8
  12352     Cooling:Electricity,     !- Variable or Meter 9 Name
  12353     SumOrAverage,            !- Aggregation Type for Variable or Meter 9
  12354     HeatRejection:Electricity,  !- Variable or Meter 10 Name
  12355     SumOrAverage,            !- Aggregation Type for Variable or Meter 10
  12356     Humidifier:Electricity,  !- Variable or Meter 11 Name
  12357     SumOrAverage,            !- Aggregation Type for Variable or Meter 11
  12358     HeatRecovery:Electricity,!- Variable or Meter 12 Name
  12359     SumOrAverage,            !- Aggregation Type for Variable or Meter 12
  12360     WaterSystems:Electricity,!- Variable or Meter 13 Name
  12361     SumOrAverage,            !- Aggregation Type for Variable or Meter 13
  12362     Cogeneration:Electricity,!- Variable or Meter 14 Name
  12363     SumOrAverage;            !- Aggregation Type for Variable or Meter 14
  12364 
  12365 Output:Table:Monthly,
  12366     Building Energy Performance - Natural Gas,  !- Name
  12367     2,                       !- Digits After Decimal
  12368     InteriorEquipment:Gas,   !- Variable or Meter 1 Name
  12369     SumOrAverage,            !- Aggregation Type for Variable or Meter 1
  12370     ExteriorEquipment:Gas,   !- Variable or Meter 2 Name
  12371     SumOrAverage,            !- Aggregation Type for Variable or Meter 2
  12372     Heating:Gas,             !- Variable or Meter 3 Name
  12373     SumOrAverage,            !- Aggregation Type for Variable or Meter 3
  12374     Cooling:Gas,             !- Variable or Meter 4 Name
  12375     SumOrAverage,            !- Aggregation Type for Variable or Meter 4
  12376     WaterSystems:Gas,        !- Variable or Meter 5 Name
  12377     SumOrAverage,            !- Aggregation Type for Variable or Meter 5
  12378     Cogeneration:Gas,        !- Variable or Meter 6 Name
  12379     SumOrAverage;            !- Aggregation Type for Variable or Meter 6
  12380 
  12381 Output:Table:Monthly,
  12382     Peak Energy End-Use - Electricity Part 1,  !- Name
  12383     2,                       !- Digits After Decimal
  12384     InteriorLights:Electricity,  !- Variable or Meter 1 Name
  12385     Maximum,                 !- Aggregation Type for Variable or Meter 1
  12386     TaskLights:InteriorLights:Electricity,  !- Variable or Meter 2 Name
  12387     Maximum,                 !- Aggregation Type for Variable or Meter 2
  12388     ExteriorLights:Electricity,  !- Variable or Meter 3 Name
  12389     Maximum,                 !- Aggregation Type for Variable or Meter 3
  12390     General:InteriorEquipment:Electricity,  !- Variable or Meter 4 Name
  12391     Maximum,                 !- Aggregation Type for Variable or Meter 4
  12392     ExteriorEquipment:Electricity,  !- Variable or Meter 5 Name
  12393     Maximum,                 !- Aggregation Type for Variable or Meter 5
  12394     Fans:Electricity,        !- Variable or Meter 6 Name
  12395     Maximum,                 !- Aggregation Type for Variable or Meter 6
  12396     Pumps:Electricity,       !- Variable or Meter 7 Name
  12397     Maximum,                 !- Aggregation Type for Variable or Meter 7
  12398     Heating:Electricity,     !- Variable or Meter 8 Name
  12399     Maximum;                 !- Aggregation Type for Variable or Meter 8
  12400 
  12401 Output:Table:Monthly,
  12402     Peak Electrical Demand,  !- Name
  12403     3,                       !- Digits After Decimal
  12404     Electricity:Facility,    !- Variable or Meter 1 Name
  12405     SumOrAverage,            !- Aggregation Type for Variable or Meter 1
  12406     Electricity:Facility,    !- Variable or Meter 2 Name
  12407     Maximum,                 !- Aggregation Type for Variable or Meter 2
  12408     InteriorLights:Electricity,  !- Variable or Meter 3 Name
  12409     ValueWhenMaximumOrMinimum,  !- Aggregation Type for Variable or Meter 3
  12410     InteriorEquipment:Electricity,  !- Variable or Meter 4 Name
  12411     ValueWhenMaximumOrMinimum,  !- Aggregation Type for Variable or Meter 4
  12412     Fans:Electricity,        !- Variable or Meter 5 Name
  12413     ValueWhenMaximumOrMinimum,  !- Aggregation Type for Variable or Meter 5
  12414     Heating:Electricity,     !- Variable or Meter 6 Name
  12415     ValueWhenMaximumOrMinimum,  !- Aggregation Type for Variable or Meter 6
  12416     Cooling:Electricity,     !- Variable or Meter 7 Name
  12417     ValueWhenMaximumOrMinimum,  !- Aggregation Type for Variable or Meter 7
  12418     ExteriorLights:Electricity,  !- Variable or Meter 8 Name
  12419     ValueWhenMaximumOrMinimum,  !- Aggregation Type for Variable or Meter 8
  12420     Pumps:Electricity,       !- Variable or Meter 9 Name
  12421     ValueWhenMaximumOrMinimum,  !- Aggregation Type for Variable or Meter 9
  12422     HeatRejection:Electricity,  !- Variable or Meter 10 Name
  12423     ValueWhenMaximumOrMinimum,  !- Aggregation Type for Variable or Meter 10
  12424     ExteriorEquipment:Electricity,  !- Variable or Meter 11 Name
  12425     ValueWhenMaximumOrMinimum,  !- Aggregation Type for Variable or Meter 11
  12426     Humidification:Electricity,  !- Variable or Meter 12 Name
  12427     ValueWhenMaximumOrMinimum,  !- Aggregation Type for Variable or Meter 12
  12428     HeatRecovery:Electricity,!- Variable or Meter 13 Name
  12429     ValueWhenMaximumOrMinimum,  !- Aggregation Type for Variable or Meter 13
  12430     WaterSystems:Electricity,!- Variable or Meter 14 Name
  12431     ValueWhenMaximumOrMinimum,  !- Aggregation Type for Variable or Meter 14
  12432     Refrigeration:Electricity,  !- Variable or Meter 15 Name
  12433     ValueWhenMaximumOrMinimum,  !- Aggregation Type for Variable or Meter 15
  12434     Generators:Electricity,  !- Variable or Meter 16 Name
  12435     ValueWhenMaximumOrMinimum,  !- Aggregation Type for Variable or Meter 16
  12436     ElectricityProduced:Facility,  !- Variable or Meter 17 Name
  12437     ValueWhenMaximumOrMinimum;  !- Aggregation Type for Variable or Meter 17
  12438 
  12439 Output:Table:Monthly,
  12440     Peak Gas Demand,         !- Name
  12441     3,                       !- Digits After Decimal
  12442     Gas:Facility,            !- Variable or Meter 1 Name
  12443     SumOrAverage,            !- Aggregation Type for Variable or Meter 1
  12444     Gas:Facility,            !- Variable or Meter 2 Name
  12445     Maximum,                 !- Aggregation Type for Variable or Meter 2
  12446     Gas:HVAC,                !- Variable or Meter 3 Name
  12447     ValueWhenMaximumOrMinimum,  !- Aggregation Type for Variable or Meter 3
  12448     InteriorEquipment:Gas,   !- Variable or Meter 4 Name
  12449     ValueWhenMaximumOrMinimum,  !- Aggregation Type for Variable or Meter 4
  12450     MiscPlugGas:InteriorEquipment:Gas,  !- Variable or Meter 5 Name
  12451     ValueWhenMaximumOrMinimum,  !- Aggregation Type for Variable or Meter 5
  12452     Gas:Plant,               !- Variable or Meter 6 Name
  12453     ValueWhenMaximumOrMinimum,  !- Aggregation Type for Variable or Meter 6
  12454     WaterSystems:Gas,        !- Variable or Meter 7 Name
  12455     ValueWhenMaximumOrMinimum,  !- Aggregation Type for Variable or Meter 7
  12456     Water Heater:WaterSystems:Gas,  !- Variable or Meter 8 Name
  12457     ValueWhenMaximumOrMinimum,  !- Aggregation Type for Variable or Meter 8
  12458     Heating:Gas,             !- Variable or Meter 9 Name
  12459     ValueWhenMaximumOrMinimum;  !- Aggregation Type for Variable or Meter 9
  12460 
  12461 
  12462 !-   ===========  ALL OBJECTS IN CLASS: OUTPUTCONTROL:TABLE:STYLE ===========
  12463 
  12464 OutputControl:Table:Style,
  12465     CommaAndHTML;            !- Column Separator
  12466 
  12467 
  12468 !-   ===========  ALL OBJECTS IN CLASS: OUTPUT:VARIABLE ===========
  12469 
  12470 Output:Variable,
  12471     *,                       !- Key Value
  12472     Zone Mean Air Temperature,  !- Variable Name
  12473     Hourly;                  !- Reporting Frequency
  12474 
  12475 
  12476 !-   ===========  ALL OBJECTS IN CLASS: OUTPUT:METER:METERFILEONLY ===========
  12477 
  12478 !No PV for this case
  12479 Output:Meter:MeterFileOnly,
  12480     Electricity:Facility,    !- Name
  12481     Hourly;                  !- Reporting Frequency
  12482 
  12483 Output:Meter:MeterFileOnly,
  12484     ElectricityNet:Facility, !- Name
  12485     Hourly;                  !- Reporting Frequency
  12486 
  12487 Output:Meter:MeterFileOnly,
  12488     Gas:Facility,            !- Name
  12489     Hourly;                  !- Reporting Frequency
  12490 
  12491 Output:Meter:MeterFileOnly,
  12492     InteriorLights:Electricity,  !- Name
  12493     Hourly;                  !- Reporting Frequency
  12494 
  12495 Output:Meter:MeterFileOnly,
  12496     InteriorEquipment:Electricity,  !- Name
  12497     Hourly;                  !- Reporting Frequency
  12498 
  12499 
  12500 !-   ===========  ALL OBJECTS IN CLASS: METER:CUSTOM ===========
  12501 
  12502 Meter:Custom,
  12503     Wired_LTG_Electricity,   !- Name
  12504     Electricity,             !- Fuel Type
  12505     ,                        !- Key Name 1
  12506     Wired_LTG;               !- Output Variable or Meter Name 1
  12507 
  12508 
  12509 !-   ===========  ALL OBJECTS IN CLASS: METER:CUSTOMDECREMENT ===========
  12510 
  12511 Meter:CustomDecrement,
  12512     Wired_Int_EQUIP,         !- Name
  12513     Electricity,             !- Fuel Type
  12514     InteriorEquipment:Electricity,  !- Source Meter Name
  12515     Core_bottom_Elevators_Equip,  !- Key Name 1
  12516     Electric Equipment Electric Energy;  !- Output Variable or Meter Name 1
  12517 
  Processing Input Data File (in.idf) -- Complete
  Maximum number of Alpha IDF Args=          94
  Maximum number of Numeric IDF Args=          22
  Number of IDF "Lines"=         978
  Number of Defaulted Fields=         120
  Number of Fields with Defaults=        1977
  Number of Autosized Fields=          80
  Number of Autosizable Fields =         113
  Number of Autocalculated Fields=         155
  Number of Autocalculatable Fields =         276
 Getting object=VERSION
 Getting object=HEATBALANCEALGORITHM
 Getting object=TIMESTEP
 Getting object=SIMULATIONCONTROL
 Getting object=OUTPUT:SURFACES:LIST
 Getting object=OUTPUT:SURFACES:DRAWING
 Getting object=OUTPUT:VARIABLEDICTIONARY
 Getting object=OUTPUT:CONSTRUCTIONS
 Getting object=BRANCH
 Getting object=CURVE:BIQUADRATIC
 Getting object=CURVE:QUADRATIC
 Getting object=NODELIST
 Getting object=BRANCHLIST
 Getting object=DESIGNSPECIFICATION:OUTDOORAIR
 Getting object=DESIGNSPECIFICATION:ZONEAIRDISTRIBUTION
 Getting object=SIZING:PARAMETERS
 Getting object=ZONE
 Getting object=SIZING:ZONE
 Getting object=SIZING:SYSTEM
 Getting object=SIZING:PLANT
 Getting object=OUTPUT:TABLE:SUMMARYREPORTS
 Getting object=SIZINGPERIOD:DESIGNDAY
 Getting object=RUNPERIOD
 Getting object=RUNPERIODCONTROL:SPECIALDAYS
 Getting object=RUNPERIODCONTROL:DAYLIGHTSAVINGTIME
 Getting object=SITE:LOCATION
 Getting object=SITE:GROUNDTEMPERATURE:BUILDINGSURFACE
 Getting object=SITE:WATERMAINSTEMPERATURE
 Getting object=OUTPUT:VARIABLE
 Getting object=SCHEDULE:COMPACT
  Processing Schedule Input -- Start
 Getting object=SCHEDULETYPELIMITS
  Processing Schedule Input -- Complete
 Getting object=BUILDING
 Getting object=SURFACECONVECTIONALGORITHM:INSIDE
 Getting object=SURFACECONVECTIONALGORITHM:OUTSIDE
 Getting object=MATERIAL
 Getting object=MATERIAL:NOMASS
 Getting object=WINDOWMATERIAL:GLAZING
 Getting object=WINDOWMATERIAL:GAS
 Getting object=WINDOWMATERIAL:GASMIXTURE
 Getting object=CONSTRUCTION
 Getting object=GLOBALGEOMETRYRULES
 Getting object=BUILDINGSURFACE:DETAILED
 Getting object=FENESTRATIONSURFACE:DETAILED
 Getting object=INTERNALMASS
 Getting object=PEOPLE
 Getting object=LIGHTS
 Getting object=ELECTRICEQUIPMENT
 Getting object=SHADOWCALCULATION
 Getting object=DAYLIGHTING:CONTROLS
 Getting object=WATERHEATER:MIXED
 Getting object=ZONEINFILTRATION:DESIGNFLOWRATE
 Getting object=OUTDOORAIR:NODELIST
 Getting object=OUTDOORAIR:NODE
 Getting object=ZONECONTROL:THERMOSTAT
 Getting object=THERMOSTATSETPOINT:DUALSETPOINT
 Getting object=ENERGYMANAGEMENTSYSTEM:SENSOR
 Getting object=ENERGYMANAGEMENTSYSTEM:ACTUATOR
 Getting object=ENERGYMANAGEMENTSYSTEM:GLOBALVARIABLE
 Getting object=ENERGYMANAGEMENTSYSTEM:PROGRAM
 Getting object=ENERGYMANAGEMENTSYSTEM:OUTPUTVARIABLE
 Getting object=ENERGYMANAGEMENTSYSTEM:PROGRAMCALLINGMANAGER
 Getting object=SETPOINTMANAGER:SCHEDULED
 Getting object=SETPOINTMANAGER:OUTDOORAIRRESET
 Getting object=SETPOINTMANAGER:MIXEDAIR
 Getting object=PLANTLOOP
 Getting object=AVAILABILITYMANAGER:NIGHTCYCLE
 Getting object=AVAILABILITYMANAGERASSIGNMENTLIST
 Getting object=CONNECTORLIST
 Getting object=CONNECTOR:SPLITTER
 Getting object=CONNECTOR:MIXER
 Getting object=ZONEHVAC:EQUIPMENTCONNECTIONS
 Getting object=ZONEHVAC:EQUIPMENTLIST
 Getting object=AIRLOOPHVAC:SUPPLYPATH
 Getting object=AIRLOOPHVAC:RETURNPATH
 Getting object=WATERUSE:EQUIPMENT
 Getting object=WATERUSE:CONNECTIONS
 Getting object=ELECTRICLOADCENTER:TRANSFORMER
 Getting object=AIRLOOPHVAC:ZONESPLITTER
 Getting object=ZONEHVAC:AIRDISTRIBUTIONUNIT
 Getting object=AIRTERMINAL:SINGLEDUCT:VAV:REHEAT
 Getting object=COIL:HEATING:ELECTRIC
 Getting object=COIL:HEATING:GAS
 Getting object=AIRLOOPHVAC:RETURNPLENUM
 Getting object=AIRLOOPHVAC:ZONEMIXER
 Getting object=AIRLOOPHVAC
 Getting object=AIRLOOPHVAC:CONTROLLERLIST
 Getting object=AIRLOOPHVAC:OUTDOORAIRSYSTEM
 Getting object=AIRLOOPHVAC:OUTDOORAIRSYSTEM:EQUIPMENTLIST
 Getting object=OUTDOORAIR:MIXER
 Getting object=EXTERIOR:LIGHTS
 Getting object=CONTROLLER:OUTDOORAIR
 Getting object=CONTROLLER:MECHANICALVENTILATION
 Getting object=COILSYSTEM:COOLING:DX
 Getting object=COIL:COOLING:DX:TWOSPEED
 Getting object=FAN:VARIABLEVOLUME
 Getting object=PIPE:ADIABATIC
 Getting object=PLANTEQUIPMENTOPERATIONSCHEMES
 Getting object=PLANTEQUIPMENTOPERATION:HEATINGLOAD
 Getting object=PLANTEQUIPMENTLIST
 Getting object=PUMP:CONSTANTSPEED
 Getting object=METER:CUSTOM
 Getting object=METER:CUSTOMDECREMENT
 Getting object=OUTPUT:METER:METERFILEONLY
 Getting object=OUTPUT:TABLE:MONTHLY
 Getting object=OUTPUTCONTROL:TABLE:STYLE
 MonthlyInputCount=          19
 sizeMonthlyInput=          25
 MonthlyFieldSetInputCount=         144
 sizeMonthlyFieldSetInput=         150
 MonthlyTablesCount=         168
 MonthlyColumnsCount=         928
 sizeReportName=         100
 numReportName=          13
 sizeSubTable=         100
 numSubTable=          63
 sizeColumnTag=         400
 numColumnTag=         397
 sizeTableEntry=        5800
 numTableEntry=        5743
 sizeCompSizeTableEntry=         100
 numCompSizeTableEntry=          65
 NumOfRVariable=       17453
 NumOfRVariable(Total)=       17453
 NumOfRVariable(Actual)=         673
 NumOfRVariable(Summed)=         572
 NumOfRVariable(Meter)=         196
 NumOfIVariable=         837
 NumOfIVariable(Total)=         837
 NumOfIVariable(Actual)=           0
 NumOfIVariable(Summed)=           0
 MaxRVariable=        1000
 MaxIVariable=          10
 NumEnergyMeters=         160
 NumVarMeterArrays=         197
 maxUniqueKeyCount=        1500
 maxNumberOfFigures=           1
 MAXHCArrayBounds=          10
 MaxVerticesPerSurface=           4
 NumReportList=         500
 InstMeterCacheSize=        1000
 ClippingAlgorithm=SutherlandHodgman
 MonthlyFieldSetInputCount=         144
 NumConsideredOutputVariables=          77
 MaxConsideredOutputVariables=          77
 numActuatorsUsed=           2
 numEMSActuatorsAvailable=        2431
 maxEMSActuatorsAvailable=        3000
 numInternalVariablesUsed=           0
 numEMSInternalVarsAvailable=         460
 maxEMSInternalVarsAvailable=        1000
 NumOfNodeConnections=         440
 MaxNumOfNodeConnections=        1000
