  Processing Data Dictionary (Energy+.idd) File -- Complete
  Maximum number of Alpha Args=        4500
  Maximum number of Numeric Args=       21040
  Number of Object Definitions=         689
  Number of Section Definitions=           2
  Total Number of Alpha Fields=       16712
  Total Number of Numeric Fields=       38446
  Total Number of Fields=       55158
  Processing Input Data File (in.idf) -- Start
      1 !-Generator IDFEditor 1.44
      2 !-Option OriginalOrderTop UseSpecialFormat
      3 
      4 !-NOTE: All comments with '!-' are ignored by the IDFEditor and are generated automatically.
      5 !-      Use '!' comments if they need to be retained when using the IDFEditor.
      6 
      7 Output:EnergyManagementSystem,
      8     Verbose,                 !- Actuator Availability Dictionary Reporting
      9     None,                    !- Internal Variable Availability Dictionary Reporting
     10     None;                    !- EMS Runtime Language Debug Output Level
     11 
     12 EnergyManagementSystem:Actuator,
     13     VAV_1_Flowrate_Setpoint, !- Name
     14     Perimeter_top_ZN_1 VAV Box Damper Node,  !- Actuated Component Unique Name
     15     System Node Setpoint,    !- Actuated Component Type
     16     Mass Flow Rate Setpoint; !- Actuated Component Control Type
     17 
     18 EnergyManagementSystem:Program,
     19     VAV_1_Flowrate_Set,      !- Name
     20     if CurrentEnvironment == 3,  !- Program Line 1
     21     Set VAV_1_Flowrate_Setpoint =0.85,  !- Program Line 2
     22     ELSE,                    !- A4
     23     Set VAV_1_Flowrate_Setpoint =NULL,  !- A5
     24     ENDIF;                   !- A6
     25 
     26 EnergyManagementSystem:ProgramCallingManager,
     27     EMS-based Setpoint Managers,  !- Name
     28     AfterPredictorAfterHVACManagers,  !- EnergyPlus Model Calling Point
     29     VAV_1_Flowrate_Set;      !- Program Name 1
     30 
     31 Output:Variable,*,Zone Air Terminal VAV Damper Position,Detailed;
     32 ! -----------------------------------------------------------------------
     33 ! The 90.1 Prototype Building Models were developed by Pacific Northwest National Laboratory (PNNL),
     34 ! under contract with the U.S. Department of Energy (DOE).  These building models were originally derived from
     35 ! DOE’s Commercial Reference Building Models with modifications from ASHRAE 90.1 committee,
     36 ! Advanced Energy Design Guide series, and other building industry expert input.
     37 ! The original purpose of developing these prototype building models was to measure energy saving impacts from
     38 ! newly published editions of ASHRAE Standard 90.1.  The basic building descriptions can be found in the Scorecards
     39 ! posted at this website.  The detailed descriptions of the prototype model development and addenda modeling
     40 ! strategies can be found in PNNL’s reports, entitled "Achieving 30% Goal: Energy and Cost Saving Analysis
     41 ! of ASHRAE/IES Standard 90.1-2010" and "Enhancements to ASHRAE Standard 90.1 Prototype Building Models",
     42 ! both posted at this website.
     43 ! -----------------------------------------------------------------------
     44 !
     45 ! BEGIN ECONOMIZER MAP
     46 ! Economizer Name, DX COIL Name
     47 ! PACU_VAV_bot_OA_Controller, PACU_VAV_bot_CoolC DXCoil
     48 ! PACU_VAV_mid_OA_Controller, PACU_VAV_mid_CoolC DXCoil
     49 ! PACU_VAV_top_OA_Controller, PACU_VAV_top_CoolC DXCoil
     50 ! END ECONOMIZER MAP
     51 !
     52 ! WeatherFile:  USA_FL_Miami.Intl.AP.722020_TMY3.epw
     53 ! IDF File:     /phome/comstd/ASHRAE90.1_2013_for_reporting/OfficeMedium/90.1_std2013/input.nobackup/PI.Oct2013_OfficeMedium_STD2013_Miami.dd.idf
     54 ! Run Case:     PI.Oct2013_OfficeMedium_STD2013_Miami
     55 ! GPARM parameters as input:
     56 !    Case = PI.Oct2013_OfficeMedium_STD2013_Miami
     57 !    weatherfile = USA_FL_Miami_TMY2.epw
     58 !    annual_run = yes
     59 !    slab_gtp = Zone1A_nonres_R0_0ftV_OfficeMedium_Miami_AddendumBB.gtp
     60 !    basement_tempt = OfficeMedium_STD2007_Miami_bsmt.idf
     61 !    avg_oa_tempt_ip = 75.76
     62 !    maxdiff_oa_tempt_ip = 14.35
     63 !    ext_wall_type = SteelFramedWall
     64 !    nonres_ext_wall_ufactor = 0.704104612
     65 !    roof_type = LightweightRoof
     66 !    nonres_roof_ufactor = 0.272556624
     67 !    roof_emissivity = 0.75
     68 !    roof_solar_absorp = 0.45
     69 !    nonres_window = Window_U_0.60_SHGC_0.25
     70 !    economizer = NoEconomizer
     71 !    skip_economizer_control = No
     72 !    sidelighting_control = yes_AY
     73 !    LPD_office = 8.826406542
     74 !    exterior_lights_watts = 0
     75 !    exterior_lights_watts_a = 623.03
     76 !    exterior_lights_watts_b = 7476.45
     77 !    avg_oa_tempt = 24.31111111
     78 !    maxdiff_oa_tempt = 7.972222222
     79 !    infil = 0.00056896
     80 !    oa_flow_per_area = 0.000431773
     81 !    SAT_reset_switch = No
     82 !    SAT_reset_T = NA
     83 !    door_infil = 1.04300287
     84 !    frac_ofpk = 0.144
     85 !    damper_sched = MinOA_Sched
     86 !    economizer_lockout = NoLockout
     87 !    heating_damper_act = Normal
     88 !    add_ck_pacu_vav_bot = Yes
     89 !    add_ck_pacu_vav_mid = Yes
     90 !    add_ck_pacu_vav_top = Yes
     91 !    core_bottom_mdp = 0.3
     92 !    perimeter_bot_zn_1_mdp = 0.314144253750149
     93 !    perimeter_bot_zn_2_mdp = 0.3
     94 !    perimeter_bot_zn_3_mdp = 0.323291276838756
     95 !    perimeter_bot_zn_4_mdp = 0.3
     96 !    core_mid_mdp = 0.358790110848353
     97 !    perimeter_mid_zn_1_mdp = 0.3
     98 !    perimeter_mid_zn_2_mdp = 0.3
     99 !    perimeter_mid_zn_3_mdp = 0.3
    100 !    perimeter_mid_zn_4_mdp = 0.3
    101 !    core_top_mdp = 0.341177534848771
    102 !    perimeter_top_zn_1_mdp = 0.3
    103 !    perimeter_top_zn_2_mdp = 0.3
    104 !    perimeter_top_zn_3_mdp = 0.3
    105 !    perimeter_top_zn_4_mdp = 0.3
    106 !    pacu_vav_bot_oaf = 1.19508883333333
    107 !    pacu_vav_mid_oaf = 1.19508883333333
    108 !    pacu_vav_top_oaf = 1.19508883333333
    109 !    BLDG_ELEVATORS_LIGHTS_FAN_SCH = ELEV_LIGHT_FAN_SCH_ADD_DF
    110 !    BLDG_ELEVATORS_LIGHTS_FAN_POWER = 125
    111 !    BLDG_EQUIP_SCH = BLDG_EQUIP_SCH_ADV
    112 !    addendum_cd = yes
    113 !    pv_generator = no
    114 !    pv_surface_area = 0
    115 !    STD189_overhang = no
    116 !    swh_et = 0.808039999
    117 !    swh_ua = 7.561562668
    118 !    ext_lgt_sch = Exterior_Lgt_ALWAYS_ON
    119 !    PACU_VAV_bot_ERV = No
    120 !    PACU_VAV_mid_ERV = No
    121 !    PACU_VAV_top_ERV = No
    122 !    LTG_SCH_SET = LTG_SET_STD2013
    123 !    transformer_size = 45000
    124 !    transformer_eff = 0.977
    125 !    PACU_VAV_bot_ERV_power = 907.476237916664
    126 !    PACU_VAV_mid_ERV_power = 907.476237916664
    127 !    PACU_VAV_top_ERV_power = 907.476237916664
    128 !    OA_BASED_OPTIMUM_START_EMS = yes
    129 !    OPTIMUM_START_SF_DEPENDENT_EMS = no
    130 !    wwr = 0.33
    131 !    pipe_heat_loss = 1277
    132 !    skip_EMSprogram = yes
    133 !    HtgSetP_Sch_PACU_VAV_bot = HTGSETP_SCH_YES_OPTIMUM
    134 !    HtgSetP_Sch_PACU_VAV_mid = HTGSETP_SCH_YES_OPTIMUM
    135 !    HtgSetP_Sch_PACU_VAV_top = HTGSETP_SCH_YES_OPTIMUM
    136 !    ClgSetP_Sch_PACU_VAV_bot = CLGSETP_SCH_YES_OPTIMUM
    137 !    ClgSetP_Sch_PACU_VAV_mid = CLGSETP_SCH_YES_OPTIMUM
    138 !    ClgSetP_Sch_PACU_VAV_top = CLGSETP_SCH_YES_OPTIMUM
    139 !    Wfile_TMY3 = USA_FL_Miami.Intl.AP.722020_TMY3.epw
    140 !    loadProfile = No
    141 !    receptacle_ctrl_occ_reduction_frac = 0.95308699
    142 !    receptacle_ctrl_unocc_reduction_frac = 0.769184602
    143 Version,8.0;
    144 
    145 Building,
    146     Medium Office,           !- Name
    147     0.0000,                  !- North Axis {deg}
    148     City,                    !- Terrain
    149     0.0400,                  !- Loads Convergence Tolerance Value
    150     0.2000,                  !- Temperature Convergence Tolerance Value {deltaC}
    151     FullInteriorAndExterior, !- Solar Distribution
    152     25,                      !- Maximum Number of Warmup Days
    153     6;                       !- Minimum Number of Warmup Days
    154 
    155 Timestep,4;
    156 SurfaceConvectionAlgorithm:Inside,TARP;
    157 SurfaceConvectionAlgorithm:Outside,TARP;
    158 HeatBalanceAlgorithm,ConductionTransferFunction;
    159 
    160 ShadowCalculation,
    161     AverageOverDaysInFrequency,  !- Calculation Method
    162     30;                      !- Calculation Frequency
    163 
    164 SimulationControl,
    165     Yes,                     !- Do Zone Sizing Calculation
    166     Yes,                     !- Do System Sizing Calculation
    167     Yes,                     !- Do Plant Sizing Calculation
    168     Yes,                     !- Run Simulation for Sizing Periods
    169     YES;                     !- Run Simulation for Weather File Run Periods
    170 
    171 RunPeriod,
    172     ,                        !- Name
    173     1,                       !- Begin Month
    174     1,                       !- Begin Day of Month
    175     12,                      !- End Month
    176     31,                      !- End Day of Month
    177     Sunday,                  !- Day of Week for Start Day
    178     No,                      !- Use Weather File Holidays and Special Days
    179     No,                      !- Use Weather File Daylight Saving Period
    180     No,                      !- Apply Weekend Holiday Rule
    181     Yes,                     !- Use Weather File Rain Indicators
    182     Yes;                     !- Use Weather File Snow Indicators
    183 
    184 ! US National Holidays
    185 RunPeriodControl:SpecialDays,
    186     New Years Day,           !- Name
    187     January 1,               !- Start Date
    188     1,                       !- Duration {days}
    189     Holiday;                 !- Special Day Type
    190 
    191 RunPeriodControl:SpecialDays,
    192     Veterans Day,            !- Name
    193     November 11,             !- Start Date
    194     1,                       !- Duration {days}
    195     Holiday;                 !- Special Day Type
    196 
    197 RunPeriodControl:SpecialDays,
    198     Christmas,               !- Name
    199     December 25,             !- Start Date
    200     1,                       !- Duration {days}
    201     Holiday;                 !- Special Day Type
    202 
    203 RunPeriodControl:SpecialDays,
    204     Independence Day,        !- Name
    205     July 4,                  !- Start Date
    206     1,                       !- Duration {days}
    207     Holiday;                 !- Special Day Type
    208 
    209 RunPeriodControl:SpecialDays,
    210     MLK Day,                 !- Name
    211     3rd Monday in January,   !- Start Date
    212     1,                       !- Duration {days}
    213     Holiday;                 !- Special Day Type
    214 
    215 RunPeriodControl:SpecialDays,
    216     Presidents Day,          !- Name
    217     3rd Monday in February,  !- Start Date
    218     1,                       !- Duration {days}
    219     Holiday;                 !- Special Day Type
    220 
    221 RunPeriodControl:SpecialDays,
    222     Memorial Day,            !- Name
    223     Last Monday in May,      !- Start Date
    224     1,                       !- Duration {days}
    225     Holiday;                 !- Special Day Type
    226 
    227 RunPeriodControl:SpecialDays,
    228     Labor Day,               !- Name
    229     1st Monday in September, !- Start Date
    230     1,                       !- Duration {days}
    231     Holiday;                 !- Special Day Type
    232 
    233 RunPeriodControl:SpecialDays,
    234     Columbus Day,            !- Name
    235     2nd Monday in October,   !- Start Date
    236     1,                       !- Duration {days}
    237     Holiday;                 !- Special Day Type
    238 
    239 RunPeriodControl:SpecialDays,
    240     Thanksgiving,            !- Name
    241     4th Thursday in November,!- Start Date
    242     1,                       !- Duration {days}
    243     Holiday;                 !- Special Day Type
    244 
    245 ! Daylight Saving Period in US
    246 RunPeriodControl:DaylightSavingTime,
    247     2nd Sunday in March,     !- Start Date
    248     1st Sunday in November;  !- End Date
    249 
    250 ! Location and design-day objects created by:
    251 ! Site:Location and design-day objects created by:
    252 ! /tools/bin/ddy2idf /phome/weather/EnergyPlus/tmy3.new/all/USA_FL_Miami.Intl.AP.722020_TMY3.ddy
    253 !
    254 Site:Location,
    255     Miami Intl Ap_FL_USA Design_Conditions,  !- Name
    256     25.82,                   !- Latitude {deg}
    257     -80.30,                  !- Longitude {deg}
    258     -5.00,                   !- Time Zone {hr}
    259     11.00;                   !- Elevation {m}
    260 
    261 SizingPeriod:DesignDay,
    262     Miami Intl Ap Ann Htg 99.6% Condns DB,  !- Name
    263     1,                       !- Month
    264     21,                      !- Day of Month
    265     WinterDesignDay,         !- Day Type
    266     8.7,                     !- Maximum Dry-Bulb Temperature {C}
    267     0.0,                     !- Daily Dry-Bulb Temperature Range {deltaC}
    268     DefaultMultipliers,      !- Dry-Bulb Temperature Range Modifier Type
    269     ,                        !- Dry-Bulb Temperature Range Modifier Day Schedule Name
    270     Wetbulb,                 !- Humidity Condition Type
    271     8.7,                     !- Wetbulb or DewPoint at Maximum Dry-Bulb {C}
    272     ,                        !- Humidity Condition Day Schedule Name
    273     ,                        !- Humidity Ratio at Maximum Dry-Bulb {kgWater/kgDryAir}
    274     ,                        !- Enthalpy at Maximum Dry-Bulb {J/kg}
    275     ,                        !- Daily Wet-Bulb Temperature Range {deltaC}
    276     101193.,                 !- Barometric Pressure {Pa}
    277     3.8,                     !- Wind Speed {m/s}
    278     340,                     !- Wind Direction {deg}
    279     No,                      !- Rain Indicator
    280     No,                      !- Snow Indicator
    281     No,                      !- Daylight Saving Time Indicator
    282     ASHRAEClearSky,          !- Solar Model Indicator
    283     ,                        !- Beam Solar Day Schedule Name
    284     ,                        !- Diffuse Solar Day Schedule Name
    285     ,                        !- ASHRAE Clear Sky Optical Depth for Beam Irradiance (taub) {dimensionless}
    286     ,                        !- ASHRAE Clear Sky Optical Depth for Diffuse Irradiance (taud) {dimensionless}
    287     0.00;                    !- Sky Clearness
    288 
    289 SizingPeriod:DesignDay,
    290     Miami Intl Ap Ann Clg .4% Condns DB=>MWB,  !- Name
    291     7,                       !- Month
    292     21,                      !- Day of Month
    293     SummerDesignDay,         !- Day Type
    294     33.2,                    !- Maximum Dry-Bulb Temperature {C}
    295     6.7,                     !- Daily Dry-Bulb Temperature Range {deltaC}
    296     DefaultMultipliers,      !- Dry-Bulb Temperature Range Modifier Type
    297     ,                        !- Dry-Bulb Temperature Range Modifier Day Schedule Name
    298     Wetbulb,                 !- Humidity Condition Type
    299     25.3,                    !- Wetbulb or DewPoint at Maximum Dry-Bulb {C}
    300     ,                        !- Humidity Condition Day Schedule Name
    301     ,                        !- Humidity Ratio at Maximum Dry-Bulb {kgWater/kgDryAir}
    302     ,                        !- Enthalpy at Maximum Dry-Bulb {J/kg}
    303     ,                        !- Daily Wet-Bulb Temperature Range {deltaC}
    304     101193.,                 !- Barometric Pressure {Pa}
    305     4.5,                     !- Wind Speed {m/s}
    306     140,                     !- Wind Direction {deg}
    307     No,                      !- Rain Indicator
    308     No,                      !- Snow Indicator
    309     No,                      !- Daylight Saving Time Indicator
    310     ASHRAETau,               !- Solar Model Indicator
    311     ,                        !- Beam Solar Day Schedule Name
    312     ,                        !- Diffuse Solar Day Schedule Name
    313     0.528,                   !- ASHRAE Clear Sky Optical Depth for Beam Irradiance (taub) {dimensionless}
    314     1.905;                   !- ASHRAE Clear Sky Optical Depth for Diffuse Irradiance (taud) {dimensionless}
    315 
    316 !
    317 ! Ground temperature object produced by /tools/bin/gt2idf /phome/comstd/_p.gtp/state.analyses/slab/output/Zone1A_nonres_R0_0ftV_OfficeMedium_Miami_AddendumBB.gtp
    318 Site:GroundTemperature:BuildingSurface,20.99,20.98,20.99,21.04,21.06,23.22,23.57,23.64,23.66,21.46,21.16,21.05;
    319 
    320 Site:WaterMainsTemperature,
    321     Correlation,             !- Calculation Method
    322     ,                        !- Temperature Schedule Name
    323     24.31111111,             !- Annual Average Outdoor Air Temperature {C}
    324     7.972222222;             !- Maximum Difference In Monthly Average Outdoor Air Temperatures {deltaC}
    325 
    326 ! ------------------------------------------------------------------
    327 ! $Id: OpaqueLibraryScript_v30.idf,v 1.5 2010/10/21 19:30:30 atha577 Exp $
    328 ! $Log: OpaqueLibraryScript_v30.idf,v $
    329 ! Revision 1.5  2010/10/21 19:30:30  atha577
    330 ! Removed bb constructions for skylights.
    331 !
    332 ! Revision 1.4  2010/10/16 00:49:56  atha577
    333 ! Minor change to bb code.
    334 !
    335 ! Revision 1.3  2010/10/16 00:08:35  atha577
    336 ! Added bb skylight constructions.
    337 !
    338 ! Revision 1.2  2010/01/20 21:56:42  d3l143
    339 ! reset R value of semi-heated Roof to 0.001 if the R values goes below 0.001.  V4.0 has a 0.001 threshold with it.
    340 !
    341 ! Revision 1.1  2010/01/20 21:49:30  d3l143
    342 ! Initial revision
    343 !
    344 ! Note:
    345 ! January 20, 2010: We experienced a problem in upgrading Warehouse from V3.0 to V4.0.
    346 !                   The R value of the semiheated roof goes to around 0.0002 for Miami and Ryihad which V4.0 compliants that it is below 0.001.
    347 !                   This was not a problem for V3.0.  Here we implemented a temporal solution to re-set the r value to 0.001 when it is below it.
    348 ! ------------------------------------------------------------------
    349 !
    350 Material,
    351     Std Wood 6inch,          !- Name
    352     MediumSmooth,            !- Roughness
    353     0.15,                    !- Thickness {m}
    354     0.12,                    !- Conductivity {W/m-K}
    355     540.0000,                !- Density {kg/m3}
    356     1210,                    !- Specific Heat {J/kg-K}
    357     0.9000000,               !- Thermal Absorptance
    358     0.7000000,               !- Solar Absorptance
    359     0.7000000;               !- Visible Absorptance
    360 
    361 Material,
    362     AC02 Acoustic Ceiling,   !- Name
    363     MediumSmooth,            !- Roughness
    364     1.2700000E-02,           !- Thickness {m}
    365     5.7000000E-02,           !- Conductivity {W/m-K}
    366     288.0000,                !- Density {kg/m3}
    367     1339.000,                !- Specific Heat {J/kg-K}
    368     0.9000000,               !- Thermal Absorptance
    369     0.7000000,               !- Solar Absorptance
    370     0.2000000;               !- Visible Absorptance
    371 
    372 Material,
    373     F07 25mm stucco,         !- Name
    374     Smooth,                  !- Roughness
    375     0.0254,                  !- Thickness {m}
    376     0.72,                    !- Conductivity {W/m-K}
    377     1856,                    !- Density {kg/m3}
    378     840,                     !- Specific Heat {J/kg-K}
    379     0.9,                     !- Thermal Absorptance
    380     0.7,                     !- Solar Absorptance
    381     0.7;                     !- Visible Absorptance
    382 
    383 Material,
    384     F08 Metal surface,       !- Name
    385     Smooth,                  !- Roughness
    386     0.0008,                  !- Thickness {m}
    387     45.28,                   !- Conductivity {W/m-K}
    388     7824,                    !- Density {kg/m3}
    389     500;                     !- Specific Heat {J/kg-K}
    390 
    391 Material,
    392     F08 Metal roof surface,  !- Name
    393     Smooth,                  !- Roughness
    394     0.0008,                  !- Thickness {m}
    395     45.28,                   !- Conductivity {W/m-K}
    396     7824,                    !- Density {kg/m3}
    397     500,                     !- Specific Heat {J/kg-K}
    398     0.75,                    !- Thermal Absorptance
    399     0.45;                    !- Solar Absorptance
    400 
    401 Material,
    402     F12 Asphalt shingles,    !- Name
    403     VeryRough,               !- Roughness
    404     0.0032,                  !- Thickness {m}
    405     0.04,                    !- Conductivity {W/m-K}
    406     1120,                    !- Density {kg/m3}
    407     1260,                    !- Specific Heat {J/kg-K}
    408     0.75,                    !- Thermal Absorptance
    409     0.45;                    !- Solar Absorptance
    410 
    411 Material,
    412     F13 Built-up roofing,    !- Name
    413     Rough,                   !- Roughness
    414     0.0095,                  !- Thickness {m}
    415     0.16,                    !- Conductivity {W/m-K}
    416     1120,                    !- Density {kg/m3}
    417     1460,                    !- Specific Heat {J/kg-K}
    418     0.75,                    !- Thermal Absorptance
    419     0.45;                    !- Solar Absorptance
    420 
    421 Material,
    422     G01 13mm gypsum board,   !- Name
    423     Smooth,                  !- Roughness
    424     0.0127,                  !- Thickness {m}
    425     0.1600,                  !- Conductivity {W/m-K}
    426     800.0000,                !- Density {kg/m3}
    427     1090.0000,               !- Specific Heat {J/kg-K}
    428     0.9000,                  !- Thermal Absorptance
    429     0.7000,                  !- Solar Absorptance
    430     0.5000;                  !- Visible Absorptance
    431 
    432 Material,
    433     G01 16mm gypsum board,   !- Name
    434     MediumSmooth,            !- Roughness
    435     0.0159,                  !- Thickness {m}
    436     0.16,                    !- Conductivity {W/m-K}
    437     800,                     !- Density {kg/m3}
    438     1090;                    !- Specific Heat {J/kg-K}
    439 
    440 Material,
    441     G02 16mm plywood,        !- Name
    442     Smooth,                  !- Roughness
    443     0.0159,                  !- Thickness {m}
    444     0.12,                    !- Conductivity {W/m-K}
    445     544,                     !- Density {kg/m3}
    446     1210;                    !- Specific Heat {J/kg-K}
    447 
    448 Material,
    449     M14 150mm heavyweight concrete roof,  !- Name
    450     MediumRough,             !- Roughness
    451     0.1524,                  !- Thickness {m}
    452     2.31,                    !- Conductivity {W/m-K}
    453     2322,                    !- Density {kg/m3}
    454     832;                     !- Specific Heat {J/kg-K}
    455 
    456 Material,
    457     100mm Normalweight concrete wall,  !- Name
    458     MediumRough,             !- Roughness
    459     0.1016,                  !- Thickness {m}
    460     2.31,                    !- Conductivity {W/m-K}
    461     2322,                    !- Density {kg/m3}
    462     832;                     !- Specific Heat {J/kg-K}
    463 
    464 Material,
    465     200mm Normalweight concrete wall,  !- Name
    466     MediumRough,             !- Roughness
    467     0.2032,                  !- Thickness {m}
    468     2.31,                    !- Conductivity {W/m-K}
    469     2322,                    !- Density {kg/m3}
    470     832;                     !- Specific Heat {J/kg-K}
    471 
    472 Material,
    473     100mm Normalweight concrete floor,  !- Name
    474     MediumRough,             !- Roughness
    475     0.1016,                  !- Thickness {m}
    476     2.31,                    !- Conductivity {W/m-K}
    477     2322,                    !- Density {kg/m3}
    478     832;                     !- Specific Heat {J/kg-K}
    479 
    480 Material,
    481     150mm Normalweight concrete floor,  !- Name
    482     MediumRough,             !- Roughness
    483     0.1524,                  !- Thickness {m}
    484     2.31,                    !- Conductivity {W/m-K}
    485     2322,                    !- Density {kg/m3}
    486     832;                     !- Specific Heat {J/kg-K}
    487 
    488 Material,
    489     200mm Normalweight concrete floor,  !- Name
    490     MediumRough,             !- Roughness
    491     0.2032,                  !- Thickness {m}
    492     2.31,                    !- Conductivity {W/m-K}
    493     2322,                    !- Density {kg/m3}
    494     832;                     !- Specific Heat {J/kg-K}
    495 
    496 Material,
    497     M10 200mm concrete block wall,  !- Name
    498     MediumRough,             !- Roughness
    499     0.2032,                  !- Thickness {m}
    500     0.72,                    !- Conductivity {W/m-K}
    501     800,                     !- Density {kg/m3}
    502     832;                     !- Specific Heat {J/kg-K}
    503 
    504 Material,
    505     M10 200mm concrete block basement wall,  !- Name
    506     MediumRough,             !- Roughness
    507     0.2032,                  !- Thickness {m}
    508     1.326,                   !- Conductivity {W/m-K}
    509     1842,                    !- Density {kg/m3}
    510     912;                     !- Specific Heat {J/kg-K}
    511 
    512 ! Name
    513 ! Roughness
    514 ! Thermal Resistance
    515 ! Absorptance:Thermal --
    516 ! Absorptance:Solar
    517 Material:NoMass,
    518     CP02 CARPET PAD,         !- Name
    519     VeryRough,               !- Roughness
    520     0.21648,                 !- Thermal Resistance {m2-K/W}
    521     0.9,                     !- Thermal Absorptance
    522     0.7,                     !- Solar Absorptance
    523     0.8;                     !- Visible Absorptance
    524 
    525 Material:NoMass,
    526     Air_Wall_Material,       !- Name
    527     Rough,                   !- Roughness
    528     0.2079491,               !- Thermal Resistance {m2-K/W}
    529     0.9,                     !- Thermal Absorptance
    530     0.7;                     !- Solar Absorptance
    531 
    532 Material:NoMass,
    533     Nonres_Roof_Insulation,  !- Name
    534     MediumSmooth,            !- Roughness
    535     3.47220376108688,        !- Thermal Resistance {m2-K/W}
    536     0.9,                     !- Thermal Absorptance
    537     0.7,                     !- Solar Absorptance
    538     0.7;                     !- Visible Absorptance
    539 
    540 Material:NoMass,
    541     Res_Roof_Insulation,     !- Name
    542     MediumSmooth,            !- Roughness
    543     0.0299387330245182,      !- Thermal Resistance {m2-K/W}
    544     0.9,                     !- Thermal Absorptance
    545     0.7,                     !- Solar Absorptance
    546     0.7;                     !- Visible Absorptance
    547 
    548 Material:NoMass,
    549     Semiheated_Roof_Insulation,  !- Name
    550     MediumSmooth,            !- Roughness
    551     0.0299387330245182,      !- Thermal Resistance {m2-K/W}
    552     0.9,                     !- Thermal Absorptance
    553     0.7,                     !- Solar Absorptance
    554     0.7;                     !- Visible Absorptance
    555 
    556 Material:NoMass,
    557     Nonres_Exterior_Wall_Insulation,  !- Name
    558     MediumSmooth,            !- Roughness
    559     1.0365220592115,         !- Thermal Resistance {m2-K/W}
    560     0.9,                     !- Thermal Absorptance
    561     0.7,                     !- Solar Absorptance
    562     0.7;                     !- Visible Absorptance
    563 
    564 Material:NoMass,
    565     Res_Exterior_Wall_Insulation,  !- Name
    566     MediumSmooth,            !- Roughness
    567     0.0299387330245182,      !- Thermal Resistance {m2-K/W}
    568     0.9,                     !- Thermal Absorptance
    569     0.7,                     !- Solar Absorptance
    570     0.7;                     !- Visible Absorptance
    571 
    572 Material:NoMass,
    573     Semiheated_Exterior_Wall_Insulation,  !- Name
    574     MediumSmooth,            !- Roughness
    575     0.0299387330245182,      !- Thermal Resistance {m2-K/W}
    576     0.9,                     !- Thermal Absorptance
    577     0.7,                     !- Solar Absorptance
    578     0.7;                     !- Visible Absorptance
    579 
    580 Material:NoMass,
    581     Nonres_Floor_Insulation, !- Name
    582     MediumSmooth,            !- Roughness
    583     0.0299387330245182,      !- Thermal Resistance {m2-K/W}
    584     0.9,                     !- Thermal Absorptance
    585     0.7,                     !- Solar Absorptance
    586     0.7;                     !- Visible Absorptance
    587 
    588 Material:NoMass,
    589     Res_Floor_Insulation,    !- Name
    590     MediumSmooth,            !- Roughness
    591     0.0299387330245182,      !- Thermal Resistance {m2-K/W}
    592     0.9,                     !- Thermal Absorptance
    593     0.7,                     !- Solar Absorptance
    594     0.7;                     !- Visible Absorptance
    595 
    596 Material:NoMass,
    597     Semiheated_Floor_Insulation,  !- Name
    598     MediumSmooth,            !- Roughness
    599     0.0299387330245182,      !- Thermal Resistance {m2-K/W}
    600     0.9,                     !- Thermal Absorptance
    601     0.7,                     !- Solar Absorptance
    602     0.7;                     !- Visible Absorptance
    603 
    604 Material:NoMass,
    605     Std Opaque Door Panel,   !- Name
    606     MediumRough,             !- Roughness
    607     0.123456790123457,       !- Thermal Resistance {m2-K/W}
    608     0.9,                     !- Thermal Absorptance
    609     0.7,                     !- Solar Absorptance
    610     0.7;                     !- Visible Absorptance
    611 
    612 Construction,
    613     InteriorFurnishings,     !- Name
    614     Std Wood 6inch;          !- Outside Layer
    615 
    616 Construction,
    617     Air_Wall,                !- Name
    618     Air_Wall_Material;       !- Outside Layer
    619 
    620 Construction,
    621     DropCeiling,             !- Name
    622     AC02 Acoustic Ceiling;   !- Outside Layer
    623 
    624 Construction,
    625     OpaqueDoor,              !- Name
    626     Std Opaque Door Panel;   !- Outside Layer
    627 
    628 Construction,
    629     AtticRoofDeck,           !- Name
    630     F12 Asphalt shingles,    !- Outside Layer
    631     G02 16mm plywood;        !- Layer 2
    632 
    633 Construction,
    634     int_wall,                !- Name
    635     G01 13mm gypsum board,   !- Outside Layer
    636     G01 13mm gypsum board;   !- Layer 2
    637 
    638 Construction,
    639     ext_slab_8in_with_carpet,!- Name
    640     200mm Normalweight concrete floor,  !- Outside Layer
    641     CP02 CARPET PAD;         !- Layer 2
    642 
    643 Construction,
    644     ext_slab_8in,            !- Name
    645     200mm Normalweight concrete floor;  !- Outside Layer
    646 
    647 Construction,
    648     ext_slab_6in_with_carpet,!- Name
    649     150mm Normalweight concrete floor,  !- Outside Layer
    650     CP02 CARPET PAD;         !- Layer 2
    651 
    652 Construction,
    653     ext_slab_6in,            !- Name
    654     150mm Normalweight concrete floor;  !- Outside Layer
    655 
    656 Construction,
    657     int_slab_floor,          !- Name
    658     100mm Normalweight concrete floor,  !- Outside Layer
    659     CP02 CARPET PAD;         !- Layer 2
    660 
    661 Construction,
    662     int_slab_ceiling,        !- Name
    663     CP02 CARPET PAD,         !- Outside Layer
    664     100mm Normalweight concrete floor;  !- Layer 2
    665 
    666 Construction,
    667     basement_wall,           !- Name
    668     M10 200mm concrete block basement wall;  !- Outside Layer
    669 
    670 Construction,
    671     int_wood_floor,          !- Name
    672     AC02 Acoustic Ceiling,   !- Outside Layer
    673     G02 16mm plywood,        !- Layer 2
    674     CP02 CARPET PAD;         !- Layer 3
    675 
    676 Construction,
    677     ext_soffit_floor,        !- Name
    678     G02 16mm plywood;        !- Outside Layer
    679 
    680 Construction,
    681     nonres_roof,             !- Name
    682     F13 Built-up roofing,    !- Outside Layer
    683     Nonres_Roof_Insulation,  !- Layer 2
    684     F08 Metal surface;       !- Layer 3
    685 
    686 Construction,
    687     res_roof,                !- Name
    688     F13 Built-up roofing,    !- Outside Layer
    689     Res_Roof_Insulation,     !- Layer 2
    690     F08 Metal surface;       !- Layer 3
    691 
    692 Construction,
    693     semiheated_roof,         !- Name
    694     F13 Built-up roofing,    !- Outside Layer
    695     Semiheated_Roof_Insulation,  !- Layer 2
    696     F08 Metal surface;       !- Layer 3
    697 
    698 Construction,
    699     nonres_ext_wall,         !- Name
    700     F07 25mm stucco,         !- Outside Layer
    701     G01 16mm gypsum board,   !- Layer 2
    702     Nonres_Exterior_Wall_Insulation,  !- Layer 3
    703     G01 16mm gypsum board;   !- Layer 4
    704 
    705 Construction,
    706     res_ext_wall,            !- Name
    707     F07 25mm stucco,         !- Outside Layer
    708     G01 16mm gypsum board,   !- Layer 2
    709     Res_Exterior_Wall_Insulation,  !- Layer 3
    710     G01 16mm gypsum board;   !- Layer 4
    711 
    712 Construction,
    713     semiheated_ext_wall,     !- Name
    714     F07 25mm stucco,         !- Outside Layer
    715     G01 16mm gypsum board,   !- Layer 2
    716     Semiheated_Exterior_Wall_Insulation,  !- Layer 3
    717     G01 16mm gypsum board;   !- Layer 4
    718 
    719 Construction,
    720     nonres_floor,            !- Name
    721     Nonres_Floor_Insulation, !- Outside Layer
    722     100mm Normalweight concrete floor,  !- Layer 2
    723     CP02 CARPET PAD;         !- Layer 3
    724 
    725 Construction,
    726     res_floor,               !- Name
    727     Res_Floor_Insulation,    !- Outside Layer
    728     100mm Normalweight concrete floor,  !- Layer 2
    729     CP02 CARPET PAD;         !- Layer 3
    730 
    731 Construction,
    732     semiheated_floor,        !- Name
    733     Semiheated_Floor_Insulation,  !- Outside Layer
    734     100mm Normalweight concrete floor,  !- Layer 2
    735     CP02 CARPET PAD;         !- Layer 3
    736 
    737 Construction,
    738     nonres_floor_ceiling,    !- Name
    739     CP02 CARPET PAD,         !- Outside Layer
    740     100mm Normalweight concrete floor,  !- Layer 2
    741     Nonres_Floor_Insulation; !- Layer 3
    742 
    743 Construction,
    744     res_floor_ceiling,       !- Name
    745     CP02 CARPET PAD,         !- Outside Layer
    746     100mm Normalweight concrete floor,  !- Layer 2
    747     Res_Floor_Insulation;    !- Layer 3
    748 
    749 Construction,
    750     semiheated_floor_ceiling,!- Name
    751     CP02 CARPET PAD,         !- Outside Layer
    752     100mm Normalweight concrete floor,  !- Layer 2
    753     Semiheated_Floor_Insulation;  !- Layer 3
    754 
    755 ! ------------------------------------------------------------------
    756 ! $Id: WindowsLibrary_v30.idf,v 1.6 2010/10/16 00:03:25 atha577 Exp $
    757 ! $Log: WindowsLibrary_v30.idf,v $
    758 ! Revision 1.6  2010/10/16 00:03:25  atha577
    759 ! Deleted bb skylight constructions. Added them to opaquelibraryscript.
    760 !
    761 ! Revision 1.5  2010/10/15 23:31:07  atha577
    762 ! Added addendum bb skylight constructions.
    763 !
    764 ! Revision 1.4  2010/10/14 22:53:47  atha577
    765 ! Added new skylight constructions for bb
    766 !
    767 ! Revision 1.3  2010/05/19 20:10:16  atha577
    768 ! *** empty log message ***
    769 !
    770 ! Revision 1.2  2010/05/19 20:08:49  atha577
    771 ! added bb constructions.
    772 !
    773 !
    774 ! Revision 1.1  2010/01/20 21:58:41  d3l143
    775 ! Initial revision
    776 ! Revised 5/19/2010: Added new constructions for bb from E+ window
    777 !       construction library
      ***** Tabs eliminated from above line
    778 !
    779 ! ------------------------------------------------------------------
    780 !
    781 WindowMaterial:Glazing,
    782     GREEN 6MM,               !- Name
    783     SpectralAverage,         !- Optical Data Type
    784     ,                        !- Window Glass Spectral Data Set Name
    785     0.006,                   !- Thickness {m}
    786     0.487,                   !- Solar Transmittance at Normal Incidence
    787     0.056,                   !- Front Side Solar Reflectance at Normal Incidence
    788     0.056,                   !- Back Side Solar Reflectance at Normal Incidence
    789     0.749,                   !- Visible Transmittance at Normal Incidence
    790     0.070,                   !- Front Side Visible Reflectance at Normal Incidence
    791     0.070,                   !- Back Side Visible Reflectance at Normal Incidence
    792     0.0,                     !- Infrared Transmittance at Normal Incidence
    793     0.84,                    !- Front Side Infrared Hemispherical Emissivity
    794     0.84,                    !- Back Side Infrared Hemispherical Emissivity
    795     0.9;                     !- Conductivity {W/m-K}
    796 
    797 ! ID 221
    798 WindowMaterial:Glazing,
    799     REF B CLEAR HI 6MM,      !- Name
    800     SpectralAverage,         !- Optical Data Type
    801     ,                        !- Window Glass Spectral Data Set Name
    802     0.006,                   !- Thickness {m}
    803     0.240,                   !- Solar Transmittance at Normal Incidence
    804     0.160,                   !- Front Side Solar Reflectance at Normal Incidence
    805     0.320,                   !- Back Side Solar Reflectance at Normal Incidence
    806     0.300,                   !- Visible Transmittance at Normal Incidence
    807     0.160,                   !- Front Side Visible Reflectance at Normal Incidence
    808     0.290,                   !- Back Side Visible Reflectance at Normal Incidence
    809     0.0,                     !- Infrared Transmittance at Normal Incidence
    810     0.84,                    !- Front Side Infrared Hemispherical Emissivity
    811     0.60,                    !- Back Side Infrared Hemispherical Emissivity
    812     0.9;                     !- Conductivity {W/m-K}
    813 
    814 WindowMaterial:Glazing,
    815     REF C CLEAR HI 6MM,      !- Name
    816     SpectralAverage,         !- Optical Data Type
    817     ,                        !- Window Glass Spectral Data Set Name
    818     0.006,                   !- Thickness {m}
    819     0.200,                   !- Solar Transmittance at Normal Incidence
    820     0.160,                   !- Front Side Solar Reflectance at Normal Incidence
    821     0.390,                   !- Back Side Solar Reflectance at Normal Incidence
    822     0.220,                   !- Visible Transmittance at Normal Incidence
    823     0.170,                   !- Front Side Visible Reflectance at Normal Incidence
    824     0.350,                   !- Back Side Visible Reflectance at Normal Incidence
    825     0.0,                     !- Infrared Transmittance at Normal Incidence
    826     0.84,                    !- Front Side Infrared Hemispherical Emissivity
    827     0.55,                    !- Back Side Infrared Hemispherical Emissivity
    828     0.9;                     !- Conductivity {W/m-K}
    829 
    830 WindowMaterial:Glazing,
    831     ECREF-1 COLORED 6MM,     !- Name
    832     SpectralAverage,         !- Optical Data Type
    833     ,                        !- Window Glass Spectral Data Set Name
    834     0.006,                   !- Thickness {m}
    835     0.099,                   !- Solar Transmittance at Normal Incidence
    836     0.219,                   !- Front Side Solar Reflectance at Normal Incidence
    837     0.219,                   !- Back Side Solar Reflectance at Normal Incidence
    838     0.155,                   !- Visible Transmittance at Normal Incidence
    839     0.073,                   !- Front Side Visible Reflectance at Normal Incidence
    840     0.073,                   !- Back Side Visible Reflectance at Normal Incidence
    841     0.0,                     !- Infrared Transmittance at Normal Incidence
    842     0.84,                    !- Front Side Infrared Hemispherical Emissivity
    843     0.84,                    !- Back Side Infrared Hemispherical Emissivity
    844     0.9;                     !- Conductivity {W/m-K}
    845 
    846 WindowMaterial:Glazing,
    847     REF B TINT MID 6MM,      !- Name
    848     SpectralAverage,         !- Optical Data Type
    849     ,                        !- Window Glass Spectral Data Set Name
    850     0.006,                   !- Thickness {m}
    851     0.100,                   !- Solar Transmittance at Normal Incidence
    852     0.110,                   !- Front Side Solar Reflectance at Normal Incidence
    853     0.410,                   !- Back Side Solar Reflectance at Normal Incidence
    854     0.130,                   !- Visible Transmittance at Normal Incidence
    855     0.100,                   !- Front Side Visible Reflectance at Normal Incidence
    856     0.320,                   !- Back Side Visible Reflectance at Normal Incidence
    857     0.0,                     !- Infrared Transmittance at Normal Incidence
    858     0.84,                    !- Front Side Infrared Hemispherical Emissivity
    859     0.45,                    !- Back Side Infrared Hemispherical Emissivity
    860     0.9;                     !- Conductivity {W/m-K}
    861 
    862 WindowMaterial:Glazing,
    863     CLEAR 6MM,               !- Name
    864     SpectralAverage,         !- Optical Data Type
    865     ,                        !- Window Glass Spectral Data Set Name
    866     0.006,                   !- Thickness {m}
    867     0.775,                   !- Solar Transmittance at Normal Incidence
    868     0.071,                   !- Front Side Solar Reflectance at Normal Incidence
    869     0.071,                   !- Back Side Solar Reflectance at Normal Incidence
    870     0.881,                   !- Visible Transmittance at Normal Incidence
    871     0.080,                   !- Front Side Visible Reflectance at Normal Incidence
    872     0.080,                   !- Back Side Visible Reflectance at Normal Incidence
    873     0.0,                     !- Infrared Transmittance at Normal Incidence
    874     0.84,                    !- Front Side Infrared Hemispherical Emissivity
    875     0.84,                    !- Back Side Infrared Hemispherical Emissivity
    876     0.9;                     !- Conductivity {W/m-K}
    877 
    878 WindowMaterial:Glazing,
    879     REF D CLEAR 6MM,         !- Name
    880     SpectralAverage,         !- Optical Data Type
    881     ,                        !- Window Glass Spectral Data Set Name
    882     0.006,                   !- Thickness {m}
    883     0.429,                   !- Solar Transmittance at Normal Incidence
    884     0.308,                   !- Front Side Solar Reflectance at Normal Incidence
    885     0.379,                   !- Back Side Solar Reflectance at Normal Incidence
    886     0.334,                   !- Visible Transmittance at Normal Incidence
    887     0.453,                   !- Front Side Visible Reflectance at Normal Incidence
    888     0.505,                   !- Back Side Visible Reflectance at Normal Incidence
    889     0.0,                     !- Infrared Transmittance at Normal Incidence
    890     0.84,                    !- Front Side Infrared Hemispherical Emissivity
    891     0.82,                    !- Back Side Infrared Hemispherical Emissivity
    892     0.9;                     !- Conductivity {W/m-K}
    893 
    894 WindowMaterial:Glazing,
    895     BLUE 6MM,                !- Name
    896     SpectralAverage,         !- Optical Data Type
    897     ,                        !- Window Glass Spectral Data Set Name
    898     0.006,                   !- Thickness {m}
    899     0.480,                   !- Solar Transmittance at Normal Incidence
    900     0.050,                   !- Front Side Solar Reflectance at Normal Incidence
    901     0.050,                   !- Back Side Solar Reflectance at Normal Incidence
    902     0.570,                   !- Visible Transmittance at Normal Incidence
    903     0.060,                   !- Front Side Visible Reflectance at Normal Incidence
    904     0.060,                   !- Back Side Visible Reflectance at Normal Incidence
    905     0.0,                     !- Infrared Transmittance at Normal Incidence
    906     0.84,                    !- Front Side Infrared Hemispherical Emissivity
    907     0.84,                    !- Back Side Infrared Hemispherical Emissivity
    908     0.9;                     !- Conductivity {W/m-K}
    909 
    910 WindowMaterial:Glazing,
    911     GREY 6MM,                !- Name
    912     SpectralAverage,         !- Optical Data Type
    913     ,                        !- Window Glass Spectral Data Set Name
    914     0.006,                   !- Thickness {m}
    915     0.455,                   !- Solar Transmittance at Normal Incidence
    916     0.053,                   !- Front Side Solar Reflectance at Normal Incidence
    917     0.053,                   !- Back Side Solar Reflectance at Normal Incidence
    918     0.431,                   !- Visible Transmittance at Normal Incidence
    919     0.052,                   !- Front Side Visible Reflectance at Normal Incidence
    920     0.052,                   !- Back Side Visible Reflectance at Normal Incidence
    921     0.0,                     !- Infrared Transmittance at Normal Incidence
    922     0.84,                    !- Front Side Infrared Hemispherical Emissivity
    923     0.84,                    !- Back Side Infrared Hemispherical Emissivity
    924     0.9;                     !- Conductivity {W/m-K}
    925 
    926 WindowMaterial:Glazing,
    927     LoE CLEAR 6MM,           !- Name
    928     SpectralAverage,         !- Optical Data Type
    929     ,                        !- Window Glass Spectral Data Set Name
    930     0.006,                   !- Thickness {m}
    931     0.600,                   !- Solar Transmittance at Normal Incidence
    932     0.170,                   !- Front Side Solar Reflectance at Normal Incidence
    933     0.220,                   !- Back Side Solar Reflectance at Normal Incidence
    934     0.840,                   !- Visible Transmittance at Normal Incidence
    935     0.055,                   !- Front Side Visible Reflectance at Normal Incidence
    936     0.078,                   !- Back Side Visible Reflectance at Normal Incidence
    937     0.0,                     !- Infrared Transmittance at Normal Incidence
    938     0.84,                    !- Front Side Infrared Hemispherical Emissivity
    939     0.10,                    !- Back Side Infrared Hemispherical Emissivity
    940     0.9;                     !- Conductivity {W/m-K}
    941 
    942 ! ID 451
    943 WindowMaterial:Glazing,
    944     LoE TINT 6MM,            !- Name
    945     SpectralAverage,         !- Optical Data Type
    946     ,                        !- Window Glass Spectral Data Set Name
    947     0.006,                   !- Thickness {m}
    948     0.360,                   !- Solar Transmittance at Normal Incidence
    949     0.093,                   !- Front Side Solar Reflectance at Normal Incidence
    950     0.200,                   !- Back Side Solar Reflectance at Normal Incidence
    951     0.500,                   !- Visible Transmittance at Normal Incidence
    952     0.035,                   !- Front Side Visible Reflectance at Normal Incidence
    953     0.054,                   !- Back Side Visible Reflectance at Normal Incidence
    954     0.0,                     !- Infrared Transmittance at Normal Incidence
    955     0.84,                    !- Front Side Infrared Hemispherical Emissivity
    956     0.10,                    !- Back Side Infrared Hemispherical Emissivity
    957     0.9;                     !- Conductivity {W/m-K}
    958 
    959 ! ID 232
    960 WindowMaterial:Glazing,
    961     REF B TINT HI 6MM,       !- Name
    962     SpectralAverage,         !- Optical Data Type
    963     ,                        !- Window Glass Spectral Data Set Name
    964     0.006,                   !- Thickness {m}
    965     0.150,                   !- Solar Transmittance at Normal Incidence
    966     0.090,                   !- Front Side Solar Reflectance at Normal Incidence
    967     0.330,                   !- Back Side Solar Reflectance at Normal Incidence
    968     0.180,                   !- Visible Transmittance at Normal Incidence
    969     0.080,                   !- Front Side Visible Reflectance at Normal Incidence
    970     0.280,                   !- Back Side Visible Reflectance at Normal Incidence
    971     0.0,                     !- Infrared Transmittance at Normal Incidence
    972     0.84,                    !- Front Side Infrared Hemispherical Emissivity
    973     0.60,                    !- Back Side Infrared Hemispherical Emissivity
    974     0.9;                     !- Conductivity {W/m-K}
    975 
    976 ! ID 241
    977 WindowMaterial:Glazing,
    978     REF C CLEAR MID 6MM,     !- Name
    979     SpectralAverage,         !- Optical Data Type
    980     ,                        !- Window Glass Spectral Data Set Name
    981     0.006,                   !- Thickness {m}
    982     0.170,                   !- Solar Transmittance at Normal Incidence
    983     0.200,                   !- Front Side Solar Reflectance at Normal Incidence
    984     0.420,                   !- Back Side Solar Reflectance at Normal Incidence
    985     0.190,                   !- Visible Transmittance at Normal Incidence
    986     0.210,                   !- Front Side Visible Reflectance at Normal Incidence
    987     0.380,                   !- Back Side Visible Reflectance at Normal Incidence
    988     0.0,                     !- Infrared Transmittance at Normal Incidence
    989     0.84,                    !- Front Side Infrared Hemispherical Emissivity
    990     0.51,                    !- Back Side Infrared Hemispherical Emissivity
    991     0.9;                     !- Conductivity {W/m-K}
    992 
    993 ! ID 270
    994 WindowMaterial:Glazing,
    995     REF D TINT 6MM,          !- Name
    996     SpectralAverage,         !- Optical Data Type
    997     ,                        !- Window Glass Spectral Data Set Name
    998     0.006,                   !- Thickness {m}
    999     0.300,                   !- Solar Transmittance at Normal Incidence
   1000     0.140,                   !- Front Side Solar Reflectance at Normal Incidence
   1001     0.360,                   !- Back Side Solar Reflectance at Normal Incidence
   1002     0.250,                   !- Visible Transmittance at Normal Incidence
   1003     0.180,                   !- Front Side Visible Reflectance at Normal Incidence
   1004     0.450,                   !- Back Side Visible Reflectance at Normal Incidence
   1005     0.0,                     !- Infrared Transmittance at Normal Incidence
   1006     0.84,                    !- Front Side Infrared Hemispherical Emissivity
   1007     0.82,                    !- Back Side Infrared Hemispherical Emissivity
   1008     0.9;                     !- Conductivity {W/m-K}
   1009 
   1010 ! ID 601
   1011 WindowMaterial:Glazing,
   1012     COATED POLY-77,          !- Name
   1013     SpectralAverage,         !- Optical Data Type
   1014     ,                        !- Window Glass Spectral Data Set Name
   1015     0.00051,                 !- Thickness {m}
   1016     0.504,                   !- Solar Transmittance at Normal Incidence
   1017     0.402,                   !- Front Side Solar Reflectance at Normal Incidence
   1018     0.398,                   !- Back Side Solar Reflectance at Normal Incidence
   1019     0.766,                   !- Visible Transmittance at Normal Incidence
   1020     0.147,                   !- Front Side Visible Reflectance at Normal Incidence
   1021     0.167,                   !- Back Side Visible Reflectance at Normal Incidence
   1022     0.0,                     !- Infrared Transmittance at Normal Incidence
   1023     0.075,                   !- Front Side Infrared Hemispherical Emissivity
   1024     0.720,                   !- Back Side Infrared Hemispherical Emissivity
   1025     0.14;                    !- Conductivity {W/m-K}
   1026 
   1027 ! ID 550
   1028 WindowMaterial:Glazing,
   1029     LoE SPEC SEL TINT 6MM,   !- Name
   1030     SpectralAverage,         !- Optical Data Type
   1031     ,                        !- Window Glass Spectral Data Set Name
   1032     0.006,                   !- Thickness {m}
   1033     0.260,                   !- Solar Transmittance at Normal Incidence
   1034     0.140,                   !- Front Side Solar Reflectance at Normal Incidence
   1035     0.410,                   !- Back Side Solar Reflectance at Normal Incidence
   1036     0.460,                   !- Visible Transmittance at Normal Incidence
   1037     0.060,                   !- Front Side Visible Reflectance at Normal Incidence
   1038     0.040,                   !- Back Side Visible Reflectance at Normal Incidence
   1039     0.0,                     !- Infrared Transmittance at Normal Incidence
   1040     0.84,                    !- Front Side Infrared Hemispherical Emissivity
   1041     0.03,                    !- Back Side Infrared Hemispherical Emissivity
   1042     0.9;                     !- Conductivity {W/m-K}
   1043 
   1044 ! ID 351
   1045 WindowMaterial:Glazing,
   1046     PYR B CLEAR 6MM,         !- Name
   1047     SpectralAverage,         !- Optical Data Type
   1048     ,                        !- Window Glass Spectral Data Set Name
   1049     0.006,                   !- Thickness {m}
   1050     0.680,                   !- Solar Transmittance at Normal Incidence
   1051     0.090,                   !- Front Side Solar Reflectance at Normal Incidence
   1052     0.100,                   !- Back Side Solar Reflectance at Normal Incidence
   1053     0.810,                   !- Visible Transmittance at Normal Incidence
   1054     0.110,                   !- Front Side Visible Reflectance at Normal Incidence
   1055     0.120,                   !- Back Side Visible Reflectance at Normal Incidence
   1056     0.0,                     !- Infrared Transmittance at Normal Incidence
   1057     0.84,                    !- Front Side Infrared Hemispherical Emissivity
   1058     0.20,                    !- Back Side Infrared Hemispherical Emissivity
   1059     0.9;                     !- Conductivity {W/m-K}
   1060 
   1061 ! ID 2
   1062 WindowMaterial:Glazing,
   1063     CLEAR 3MM,               !- Name
   1064     SpectralAverage,         !- Optical Data Type
   1065     ,                        !- Window Glass Spectral Data Set Name
   1066     0.003,                   !- Thickness {m}
   1067     0.837,                   !- Solar Transmittance at Normal Incidence
   1068     0.075,                   !- Front Side Solar Reflectance at Normal Incidence
   1069     0.075,                   !- Back Side Solar Reflectance at Normal Incidence
   1070     0.898,                   !- Visible Transmittance at Normal Incidence
   1071     0.081,                   !- Front Side Visible Reflectance at Normal Incidence
   1072     0.081,                   !- Back Side Visible Reflectance at Normal Incidence
   1073     0.0,                     !- Infrared Transmittance at Normal Incidence
   1074     0.84,                    !- Front Side Infrared Hemispherical Emissivity
   1075     0.84,                    !- Back Side Infrared Hemispherical Emissivity
   1076     0.9;                     !- Conductivity {W/m-K}
   1077 
   1078 ! ID 220
   1079 WindowMaterial:Glazing,
   1080     REF B CLEAR LO 6MM,      !- Name
   1081     SpectralAverage,         !- Optical Data Type
   1082     ,                        !- Window Glass Spectral Data Set Name
   1083     0.006,                   !- Thickness {m}
   1084     0.150,                   !- Solar Transmittance at Normal Incidence
   1085     0.220,                   !- Front Side Solar Reflectance at Normal Incidence
   1086     0.380,                   !- Back Side Solar Reflectance at Normal Incidence
   1087     0.200,                   !- Visible Transmittance at Normal Incidence
   1088     0.230,                   !- Front Side Visible Reflectance at Normal Incidence
   1089     0.330,                   !- Back Side Visible Reflectance at Normal Incidence
   1090     0.0,                     !- Infrared Transmittance at Normal Incidence
   1091     0.84,                    !- Front Side Infrared Hemispherical Emissivity
   1092     0.58,                    !- Back Side Infrared Hemispherical Emissivity
   1093     0.9;                     !- Conductivity {W/m-K}
   1094 
   1095 ! ID 200
   1096 WindowMaterial:Glazing,
   1097     REF A CLEAR LO 6MM,      !- Name
   1098     SpectralAverage,         !- Optical Data Type
   1099     ,                        !- Window Glass Spectral Data Set Name
   1100     0.006,                   !- Thickness {m}
   1101     0.066,                   !- Solar Transmittance at Normal Incidence
   1102     0.341,                   !- Front Side Solar Reflectance at Normal Incidence
   1103     0.493,                   !- Back Side Solar Reflectance at Normal Incidence
   1104     0.080,                   !- Visible Transmittance at Normal Incidence
   1105     0.410,                   !- Front Side Visible Reflectance at Normal Incidence
   1106     0.370,                   !- Back Side Visible Reflectance at Normal Incidence
   1107     0.0,                     !- Infrared Transmittance at Normal Incidence
   1108     0.84,                    !- Front Side Infrared Hemispherical Emissivity
   1109     0.40,                    !- Back Side Infrared Hemispherical Emissivity
   1110     0.9;                     !- Conductivity {W/m-K}
   1111 
   1112 ! ID 11
   1113 WindowMaterial:Glazing,
   1114     GREEN 3MM,               !- Name
   1115     SpectralAverage,         !- Optical Data Type
   1116     ,                        !- Window Glass Spectral Data Set Name
   1117     0.003,                   !- Thickness {m}
   1118     0.635,                   !- Solar Transmittance at Normal Incidence
   1119     0.063,                   !- Front Side Solar Reflectance at Normal Incidence
   1120     0.063,                   !- Back Side Solar Reflectance at Normal Incidence
   1121     0.822,                   !- Visible Transmittance at Normal Incidence
   1122     0.075,                   !- Front Side Visible Reflectance at Normal Incidence
   1123     0.075,                   !- Back Side Visible Reflectance at Normal Incidence
   1124     0.0,                     !- Infrared Transmittance at Normal Incidence
   1125     0.84,                    !- Front Side Infrared Hemispherical Emissivity
   1126     0.84,                    !- Back Side Infrared Hemispherical Emissivity
   1127     0.9;                     !- Conductivity {W/m-K}
   1128 
   1129 ! ID 705
   1130 WindowMaterial:Glazing,
   1131     ECABS-2 COLORED 6MM,     !- Name
   1132     SpectralAverage,         !- Optical Data Type
   1133     ,                        !- Window Glass Spectral Data Set Name
   1134     0.006,                   !- Thickness {m}
   1135     0.111,                   !- Solar Transmittance at Normal Incidence
   1136     0.179,                   !- Front Side Solar Reflectance at Normal Incidence
   1137     0.179,                   !- Back Side Solar Reflectance at Normal Incidence
   1138     0.128,                   !- Visible Transmittance at Normal Incidence
   1139     0.081,                   !- Front Side Visible Reflectance at Normal Incidence
   1140     0.081,                   !- Back Side Visible Reflectance at Normal Incidence
   1141     0.0,                     !- Infrared Transmittance at Normal Incidence
   1142     0.84,                    !- Front Side Infrared Hemispherical Emissivity
   1143     0.10,                    !- Back Side Infrared Hemispherical Emissivity
   1144     0.9;                     !- Conductivity {W/m-K}
   1145 
   1146 ! ID 603
   1147 WindowMaterial:Glazing,
   1148     COATED POLY-55,          !- Name
   1149     SpectralAverage,         !- Optical Data Type
   1150     ,                        !- Window Glass Spectral Data Set Name
   1151     0.00051,                 !- Thickness {m}
   1152     0.320,                   !- Solar Transmittance at Normal Incidence
   1153     0.582,                   !- Front Side Solar Reflectance at Normal Incidence
   1154     0.593,                   !- Back Side Solar Reflectance at Normal Incidence
   1155     0.551,                   !- Visible Transmittance at Normal Incidence
   1156     0.336,                   !- Front Side Visible Reflectance at Normal Incidence
   1157     0.375,                   !- Back Side Visible Reflectance at Normal Incidence
   1158     0.0,                     !- Infrared Transmittance at Normal Incidence
   1159     0.046,                   !- Front Side Infrared Hemispherical Emissivity
   1160     0.720,                   !- Back Side Infrared Hemispherical Emissivity
   1161     0.14;                    !- Conductivity {W/m-K}
   1162 
   1163 ! ID 707
   1164 WindowMaterial:Glazing,
   1165     ECREF-2 COLORED 6MM,     !- Name
   1166     SpectralAverage,         !- Optical Data Type
   1167     ,                        !- Window Glass Spectral Data Set Name
   1168     0.006,                   !- Thickness {m}
   1169     0.099,                   !- Solar Transmittance at Normal Incidence
   1170     0.219,                   !- Front Side Solar Reflectance at Normal Incidence
   1171     0.219,                   !- Back Side Solar Reflectance at Normal Incidence
   1172     0.155,                   !- Visible Transmittance at Normal Incidence
   1173     0.073,                   !- Front Side Visible Reflectance at Normal Incidence
   1174     0.073,                   !- Back Side Visible Reflectance at Normal Incidence
   1175     0.0,                     !- Infrared Transmittance at Normal Incidence
   1176     0.84,                    !- Front Side Infrared Hemispherical Emissivity
   1177     0.10,                    !- Back Side Infrared Hemispherical Emissivity
   1178     0.9;                     !- Conductivity {W/m-K}
   1179 
   1180 !
   1181 WindowMaterial:Glazing,
   1182     LoE SPEC SEL CLEAR 6MM Rev,  !- Name
   1183     SpectralAverage,         !- Optical Data Type
   1184     ,                        !- Window Glass Spectral Data Set Name
   1185     0.006,                   !- Thickness {m}
   1186     0.430,                   !- Solar Transmittance at Normal Incidence
   1187     0.420,                   !- Front Side Solar Reflectance at Normal Incidence
   1188     0.300,                   !- Back Side Solar Reflectance at Normal Incidence
   1189     0.770,                   !- Visible Transmittance at Normal Incidence
   1190     0.060,                   !- Front Side Visible Reflectance at Normal Incidence
   1191     0.070,                   !- Back Side Visible Reflectance at Normal Incidence
   1192     0.0,                     !- Infrared Transmittance at Normal Incidence
   1193     0.03,                    !- Front Side Infrared Hemispherical Emissivity
   1194     0.84,                    !- Back Side Infrared Hemispherical Emissivity
   1195     0.9;                     !- Conductivity {W/m-K}
   1196 
   1197 ! ID 6
   1198 WindowMaterial:Glazing,
   1199     BRONZE 6MM,              !- Name
   1200     SpectralAverage,         !- Optical Data Type
   1201     ,                        !- Window Glass Spectral Data Set Name
   1202     0.006,                   !- Thickness {m}
   1203     0.482,                   !- Solar Transmittance at Normal Incidence
   1204     0.054,                   !- Front Side Solar Reflectance at Normal Incidence
   1205     0.054,                   !- Back Side Solar Reflectance at Normal Incidence
   1206     0.534,                   !- Visible Transmittance at Normal Incidence
   1207     0.057,                   !- Front Side Visible Reflectance at Normal Incidence
   1208     0.057,                   !- Back Side Visible Reflectance at Normal Incidence
   1209     0.0,                     !- Infrared Transmittance at Normal Incidence
   1210     0.84,                    !- Front Side Infrared Hemispherical Emissivity
   1211     0.84,                    !- Back Side Infrared Hemispherical Emissivity
   1212     0.9;                     !- Conductivity {W/m-K}
   1213 
   1214 ! ID 211
   1215 WindowMaterial:Glazing,
   1216     REF A TINT MID 6MM,      !- Name
   1217     SpectralAverage,         !- Optical Data Type
   1218     ,                        !- Window Glass Spectral Data Set Name
   1219     0.006,                   !- Thickness {m}
   1220     0.060,                   !- Solar Transmittance at Normal Incidence
   1221     0.130,                   !- Front Side Solar Reflectance at Normal Incidence
   1222     0.420,                   !- Back Side Solar Reflectance at Normal Incidence
   1223     0.090,                   !- Visible Transmittance at Normal Incidence
   1224     0.140,                   !- Front Side Visible Reflectance at Normal Incidence
   1225     0.350,                   !- Back Side Visible Reflectance at Normal Incidence
   1226     0.0,                     !- Infrared Transmittance at Normal Incidence
   1227     0.84,                    !- Front Side Infrared Hemispherical Emissivity
   1228     0.47,                    !- Back Side Infrared Hemispherical Emissivity
   1229     0.9;                     !- Conductivity {W/m-K}
   1230 
   1231 WindowMaterial:Glazing,
   1232     Theoretical Glass 297,   !- Name
   1233     SpectralAverage,         !- Optical Data Type
   1234     ,                        !- Window Glass Spectral Data Set Name
   1235     0.003,                   !- Thickness {m}
   1236     0.375039,                !- Solar Transmittance at Normal Incidence
   1237     0.574961,                !- Front Side Solar Reflectance at Normal Incidence
   1238     0.574961,                !- Back Side Solar Reflectance at Normal Incidence
   1239     0.529698,                !- Visible Transmittance at Normal Incidence
   1240     0.420302,                !- Front Side Visible Reflectance at Normal Incidence
   1241     0.420302,                !- Back Side Visible Reflectance at Normal Incidence
   1242     0,                       !- Infrared Transmittance at Normal Incidence
   1243     0.9,                     !- Front Side Infrared Hemispherical Emissivity
   1244     0.9,                     !- Back Side Infrared Hemispherical Emissivity
   1245     0.0103561;               !- Conductivity {W/m-K}
   1246 
   1247 WindowMaterial:Glazing,
   1248     Theoretical Glass 347,   !- Name
   1249     SpectralAverage,         !- Optical Data Type
   1250     ,                        !- Window Glass Spectral Data Set Name
   1251     0.003,                   !- Thickness {m}
   1252     0.315861,                !- Solar Transmittance at Normal Incidence
   1253     0.634139,                !- Front Side Solar Reflectance at Normal Incidence
   1254     0.634139,                !- Back Side Solar Reflectance at Normal Incidence
   1255     0.479911,                !- Visible Transmittance at Normal Incidence
   1256     0.470089,                !- Front Side Visible Reflectance at Normal Incidence
   1257     0.470089,                !- Back Side Visible Reflectance at Normal Incidence
   1258     0,                       !- Infrared Transmittance at Normal Incidence
   1259     0.9,                     !- Front Side Infrared Hemispherical Emissivity
   1260     0.9,                     !- Back Side Infrared Hemispherical Emissivity
   1261     0.010358;                !- Conductivity {W/m-K}
   1262 
   1263 WindowMaterial:Gas,
   1264     AIR 6MM,                 !- Name
   1265     Air,                     !- Gas Type
   1266     0.0063;                  !- Thickness {m}
   1267 
   1268 WindowMaterial:Gas,
   1269     AIR 13MM,                !- Name
   1270     Air,                     !- Gas Type
   1271     0.0127;                  !- Thickness {m}
   1272 
   1273 WindowMaterial:Gas,
   1274     ARGON 13MM,              !- Name
   1275     Argon,                   !- Gas Type
   1276     0.0127;                  !- Thickness {m}
   1277 
   1278 !    Sgl Green 6mm,           !- Name
   1279 Construction,
   1280     Window_U_1.22_SHGC_0.61, !- Name
   1281     GREEN 6MM;               !- Outside Layer
   1282 
   1283 !    Sgl Ref-B-H Clr 6mm,     !- Name
   1284 Construction,
   1285     Window_U_1.22_SHGC_0.39, !- Name
   1286     REF B CLEAR HI 6MM;      !- Outside Layer
   1287 
   1288 !    Sgl Ref-C-H Clr 6mm,     !- Name
   1289 Construction,
   1290     Window_U_1.22_SHGC_0.34, !- Name
   1291     REF C CLEAR HI 6MM;      !- Outside Layer
   1292 
   1293 !    Sgl Elec Ref Colored 6mm,!- Name
   1294 Construction,
   1295     Window_U_1.22_SHGC_0.25, !- Name
   1296     ECREF-1 COLORED 6MM;     !- Outside Layer
   1297 
   1298 !    Sgl Ref-B-M Tint 6mm,    !- Name
   1299 Construction,
   1300     Window_U_0.72_SHGC_0.25, !- Name
   1301     REF B TINT MID 6MM;      !- Outside Layer
   1302 
   1303 !    Dbl Ref-D Clr 6mm/6mm Air,  !- Name
   1304 Construction,
   1305     Window_U_0.62_SHGC_0.39, !- Name
   1306     REF D CLEAR 6MM,         !- Outside Layer
   1307     AIR 6MM,                 !- Layer 2
   1308     CLEAR 6MM;               !- Layer 3
   1309 
   1310 !    Dbl Ref-D Clr 6mm/6mm Air,  !- Name
   1311 Construction,
   1312     Window_U_0.57_SHGC_0.39, !- Name
   1313     REF D CLEAR 6MM,         !- Outside Layer
   1314     AIR 6MM,                 !- Layer 2
   1315     CLEAR 6MM;               !- Layer 3
   1316 
   1317 !    Dbl Ref-C-H Clr 6mm/6mm Air,  !- Name
   1318 Construction,
   1319     Window_U_0.65_SHGC_0.25, !- Name
   1320     REF C CLEAR HI 6MM,      !- Outside Layer
   1321     AIR 6MM,                 !- Layer 2
   1322     CLEAR 6MM;               !- Layer 3
   1323 
   1324 !    Dbl Ref-C-H Clr 6mm/6mm Air,  !- Name
   1325 Construction,
   1326     Window_U_0.62_SHGC_0.25, !- Name
   1327     REF C CLEAR HI 6MM,      !- Outside Layer
   1328     AIR 6MM,                 !- Layer 2
   1329     CLEAR 6MM;               !- Layer 3
   1330 
   1331 !    Dbl Ref-C-H Clr 6mm/6mm Air,  !- Name
   1332 Construction,
   1333     Window_U_0.57_SHGC_0.25, !- Name
   1334     REF C CLEAR HI 6MM,      !- Outside Layer
   1335     AIR 6MM,                 !- Layer 2
   1336     CLEAR 6MM;               !- Layer 3
   1337 
   1338 !    Dbl Blue 6mm/6mm Air,    !- Name
   1339 Construction,
   1340     Window_U_0.62_SHGC_0.49, !- Name
   1341     BLUE 6MM,                !- Outside Layer
   1342     AIR 6MM,                 !- Layer 2
   1343     CLEAR 6MM;               !- Layer 3
   1344 
   1345 !    Dbl Blue 6mm/6mm Air,    !- Name
   1346 Construction,
   1347     Window_U_0.57_SHGC_0.49, !- Name
   1348     BLUE 6MM,                !- Outside Layer
   1349     AIR 6MM,                 !- Layer 2
   1350     CLEAR 6MM;               !- Layer 3
   1351 
   1352 !    Dbl Ref-D Clr 6mm/13mm Air,  !- Name
   1353 Construction,
   1354     Window_U_0.52_SHGC_0.40, !- Name
   1355     REF D CLEAR 6MM,         !- Outside Layer
   1356     AIR 13MM,                !- Layer 2
   1357     CLEAR 6MM;               !- Layer 3
   1358 
   1359 !    Dbl Ref-D Clr 6mm/13mm Air,  !- Name
   1360 Construction,
   1361     Window_U_0.48_SHGC_0.40, !- Name
   1362     REF D CLEAR 6MM,         !- Outside Layer
   1363     AIR 13MM,                !- Layer 2
   1364     CLEAR 6MM;               !- Layer 3
   1365 
   1366 !    Dbl Ref-D Clr 6mm/13mm Arg,  !- Name
   1367 Construction,
   1368     Window_U_0.42_SHGC_0.45, !- Name
   1369     REF D CLEAR 6MM,         !- Outside Layer
   1370     ARGON 13MM,              !- Layer 2
   1371     CLEAR 6MM;               !- Layer 3
   1372 
   1373 !    Dbl Grey 6mm/13mm Air,   !- Name
   1374 Construction,
   1375     Window_U_0.46_SHGC_0.45, !- Name
   1376     GREY 6MM,                !- Outside Layer
   1377     AIR 13MM,                !- Layer 2
   1378     CLEAR 6MM;               !- Layer 3
   1379 
   1380 !    Dbl LoE (e2=.1) Tint 6mm/6mm Air,  !- Name
   1381 Construction,
   1382     Window_U_0.42_SHGC_0.40, !- Name
   1383     LoE TINT 6MM,            !- Outside Layer
   1384     AIR 6MM,                 !- Layer 2
   1385     CLEAR 6MM;               !- Layer 3
   1386 
   1387 !    Dbl Ref-B-H Clr 6mm/13mm Air,  !- Name
   1388 Construction,
   1389     Window_U_0.43_SHGC_0.26, !- Name
   1390     REF B CLEAR HI 6MM,      !- Outside Layer
   1391     AIR 13MM,                !- Layer 2
   1392     CLEAR 6MM;               !- Layer 3
   1393 
   1394 !    Dbl Ref-B-H Clr 6mm/13mm Air,  !- Name
   1395 Construction,
   1396     Window_U_0.44_SHGC_0.26, !- Name
   1397     REF B CLEAR HI 6MM,      !- Outside Layer
   1398     AIR 13MM,                !- Layer 2
   1399     CLEAR 6MM;               !- Layer 3
   1400 
   1401 !    Dbl LoE (e2=.1) Tint 6mm/6mm Air,  !- Name
   1402 Construction,
   1403     Window_U_0.42_SHGC_0.35, !- Name
   1404     LoE TINT 6MM,            !- Outside Layer
   1405     AIR 6MM,                 !- Layer 2
   1406     CLEAR 6MM;               !- Layer 3
   1407 
   1408 !    Dbl LoE (e2=.1) Tint 6mm/13mm Air,  !- Name
   1409 Construction,
   1410     Window_U_0.33_SHGC_0.40, !- Name
   1411     LoE TINT 6MM,            !- Outside Layer
   1412     AIR 13MM,                !- Layer 2
   1413     CLEAR 6MM;               !- Layer 3
   1414 
   1415 Construction,
   1416     Window_U_0.34_SHGC_0.40, !- Name
   1417     LoE TINT 6MM,            !- Outside Layer
   1418     AIR 13MM,                !- Layer 2
   1419     CLEAR 6MM;               !- Layer 3
   1420 
   1421 !    Dbl LoE (e2=.1) Tint 6mm/13mm Air,  !- Name
   1422 Construction,
   1423     Window_U_0.35_SHGC_0.35, !- Name
   1424     LoE TINT 6MM,            !- Outside Layer
   1425     AIR 13MM,                !- Layer 2
   1426     CLEAR 6MM;               !- Layer 3
   1427 
   1428 !    Dbl Ref-D Tint 6mm/6mm Air,  !- Name
   1429 Construction,
   1430     Window_U_0.55_SHGC_0.31, !- Name
   1431     REF D TINT 6MM,          !- Outside Layer
   1432     AIR 6MM,                 !- Layer 2
   1433     CLEAR 6MM;               !- Layer 3
   1434 
   1435 !    Dbl LoE Spec Sel Tint 6mm/6mm Air,  !- Name
   1436 Construction,
   1437     Window_U_0.43_SHGC_0.29, !- Name
   1438     LoE SPEC SEL TINT 6MM,   !- Outside Layer
   1439     AIR 6MM,                 !- Layer 2
   1440     CLEAR 6MM;               !- Layer 3
   1441 
   1442 !    Dbl LoE (e2=.2) Clr 6mm/13mm Air,  !- Name
   1443 Construction,
   1444     Window_U_0.34_SHGC_0.45, !- Name
   1445     PYR B CLEAR 6MM,         !- Outside Layer
   1446     AIR 13MM,                !- Layer 2
   1447     CLEAR 6MM;               !- Layer 3
   1448 
   1449 !       Dbl Ref-D Tint 6mm/6mm Air,  !- Name
   1450 Construction,
   1451     Window_U_0.56_SHGC_0.35, !- Name
   1452     REF D TINT 6MM,          !- Outside Layer
   1453     AIR 6MM,                 !- Layer 2
   1454     CLEAR 6MM;               !- Layer 3
   1455 
   1456 !    Dbl Ref-B-H Clr 6mm/13mm Air,  !- Name (0.44/0.30)
   1457 Construction,
   1458     Window_U_0.45_SHGC_0.31, !- Name
   1459     REF B CLEAR HI 6MM,      !- Outside Layer
   1460     AIR 13MM,                !- Layer 2
   1461     CLEAR 6MM;               !- Layer 3
   1462 
   1463 !    Trp LoE Film (77) Clr 3mm/6mm Air,  !- Name (0.31/0.46)
   1464 Construction,
   1465     Window_U_0.33_SHGC_0.45, !- Name
   1466     CLEAR 3MM,               !- Outside Layer
   1467     AIR 6MM,                 !- Layer 2
   1468     COATED POLY-77,          !- Layer 3
   1469     AIR 6MM,                 !- Layer 4
   1470     CLEAR 3MM;               !- Layer 5
   1471 
   1472 ! Dbl Ref B-H Tint 6mm/13mm Arg,         ! U=2.297  SC= .27  SHGC=.236  TSOL=.119  TVIS=.163
      ***** Tabs eliminated from above line
   1473 Construction,
   1474     Window_U_0.38_SHGC_0.26, !- Name
   1475     REF B TINT HI 6MM,       !- Outside Layer
   1476     ARGON 13MM,              !- Layer 2
   1477     CLEAR 6MM;               !- Layer 3
   1478 
   1479 ! Dbl LoE (e2=.1) Tint 6mm/13mm Arg,     ! U=1.502  SC= .43  SHGC=.371  TSOL=.284  TVIS=.444
   1480 Construction,
   1481     Window_U_0.25_SHGC_0.40, !- Name
   1482     LoE TINT 6MM,            !- Outside Layer
   1483     ARGON 13MM,              !- Layer 2
   1484     CLEAR 6MM;               !- Layer 3
   1485 
   1486 ! Dbl Ref-C-M Clr 6mm/13mm Arg,          ! U=2.184  SC= .27  SHGC=.233  TSOL=.136  TVIS=.173
   1487 Construction,
   1488     Window_U_0.35_SHGC_0.26, !- Name
   1489     REF C CLEAR MID 6MM,     !- Outside Layer
   1490     ARGON 13MM,              !- Layer 2
   1491     CLEAR 6MM;               !- Layer 3
   1492 
   1493 !    Dbl Ref-C-H Clr 6mm/6mm Air,  !- Name
   1494 Construction,
   1495     Window_U_0.54_SHGC_0.27, !- Name
   1496     REF C CLEAR HI 6MM,      !- Outside Layer
   1497     AIR 6MM,                 !- Layer 2
   1498     CLEAR 6MM;               !- Layer 3
   1499 
   1500 !    Dbl Ref-A-M Tint 6mm/6mm Air,  !- Name
   1501 Construction,
   1502     Window_U_0.54_SHGC_0.18, !- Name
   1503     REF A TINT MID 6MM,      !- Outside Layer
   1504     AIR 6MM,                 !- Layer 2
   1505     CLEAR 6MM;               !- Layer 3
   1506 
   1507 !    Dbl Ref-A-L Clr 6mm/13mm Air,  !- Name
   1508 Construction,
   1509     Window_U_0.54_SHGC_0.13, !- Name
   1510     REF A CLEAR LO 6MM,      !- Outside Layer
   1511     AIR 13MM,                !- Layer 2
   1512     CLEAR 6MM;               !- Layer 3
   1513 
[...]
   9914     Perimeter_top_ZN_2,      !- Zone 3 Name
   9915     CM DSOA Perimeter_top_ZN_2,  !- Design Specification Outdoor Air Object Name 3
   9916     CM DSZAD Perimeter_top_ZN_2,  !- Design Specification Zone Air Distribution Object Name 3
   9917     Perimeter_top_ZN_3,      !- Zone 4 Name
   9918     CM DSOA Perimeter_top_ZN_3,  !- Design Specification Outdoor Air Object Name 4
   9919     CM DSZAD Perimeter_top_ZN_3,  !- Design Specification Zone Air Distribution Object Name 4
   9920     Perimeter_top_ZN_4,      !- Zone 5 Name
   9921     CM DSOA Perimeter_top_ZN_4,  !- Design Specification Outdoor Air Object Name 5
   9922     CM DSZAD Perimeter_top_ZN_4;  !- Design Specification Zone Air Distribution Object Name 5
   9923 
   9924 DesignSpecification:ZoneAirDistribution,
   9925     CM DSZAD Core_top,       !- Name
   9926     1,                       !- Zone Air Distribution Effectiveness in Cooling Mode {dimensionless}
   9927     1;                       !- Zone Air Distribution Effectiveness in Heating Mode {dimensionless}
   9928 
   9929 DesignSpecification:ZoneAirDistribution,
   9930     CM DSZAD Perimeter_top_ZN_1,  !- Name
   9931     1,                       !- Zone Air Distribution Effectiveness in Cooling Mode {dimensionless}
   9932     1;                       !- Zone Air Distribution Effectiveness in Heating Mode {dimensionless}
   9933 
   9934 DesignSpecification:ZoneAirDistribution,
   9935     CM DSZAD Perimeter_top_ZN_2,  !- Name
   9936     1,                       !- Zone Air Distribution Effectiveness in Cooling Mode {dimensionless}
   9937     1;                       !- Zone Air Distribution Effectiveness in Heating Mode {dimensionless}
   9938 
   9939 DesignSpecification:ZoneAirDistribution,
   9940     CM DSZAD Perimeter_top_ZN_3,  !- Name
   9941     1,                       !- Zone Air Distribution Effectiveness in Cooling Mode {dimensionless}
   9942     1;                       !- Zone Air Distribution Effectiveness in Heating Mode {dimensionless}
   9943 
   9944 DesignSpecification:ZoneAirDistribution,
   9945     CM DSZAD Perimeter_top_ZN_4,  !- Name
   9946     1,                       !- Zone Air Distribution Effectiveness in Cooling Mode {dimensionless}
   9947     1;                       !- Zone Air Distribution Effectiveness in Heating Mode {dimensionless}
   9948 
   9949 DesignSpecification:OutdoorAir,
   9950     CM DSOA Core_top,        !- Name
   9951     Sum,                     !- Outdoor Air Method
   9952     0.00000001,              !- Outdoor Air Flow per Person {m3/s-person}
   9953     0.000431773;             !- Outdoor Air Flow per Zone Floor Area {m3/s-m2}
   9954 
   9955 DesignSpecification:OutdoorAir,
   9956     CM DSOA Perimeter_top_ZN_1,  !- Name
   9957     Sum,                     !- Outdoor Air Method
   9958     0.00000001,              !- Outdoor Air Flow per Person {m3/s-person}
   9959     0.000431773;             !- Outdoor Air Flow per Zone Floor Area {m3/s-m2}
   9960 
   9961 DesignSpecification:OutdoorAir,
   9962     CM DSOA Perimeter_top_ZN_2,  !- Name
   9963     Sum,                     !- Outdoor Air Method
   9964     0.00000001,              !- Outdoor Air Flow per Person {m3/s-person}
   9965     0.000431773;             !- Outdoor Air Flow per Zone Floor Area {m3/s-m2}
   9966 
   9967 DesignSpecification:OutdoorAir,
   9968     CM DSOA Perimeter_top_ZN_3,  !- Name
   9969     Sum,                     !- Outdoor Air Method
   9970     0.00000001,              !- Outdoor Air Flow per Person {m3/s-person}
   9971     0.000431773;             !- Outdoor Air Flow per Zone Floor Area {m3/s-m2}
   9972 
   9973 DesignSpecification:OutdoorAir,
   9974     CM DSOA Perimeter_top_ZN_4,  !- Name
   9975     Sum,                     !- Outdoor Air Method
   9976     0.00000001,              !- Outdoor Air Flow per Person {m3/s-person}
   9977     0.000431773;             !- Outdoor Air Flow per Zone Floor Area {m3/s-m2}
   9978 
   9979 Controller:MechanicalVentilation,
   9980     PACU_VAV_MID_DCV,        !- Name
   9981     ALWAYS_ON,               !- Availability Schedule Name
   9982     Yes,                     !- Demand Controlled Ventilation
   9983     VentilationRateProcedure,!- System Outdoor Air Method
   9984     ,                        !- Zone Maximum Outdoor Air Fraction {dimensionless}
   9985     Core_mid,                !- Zone 1 Name
   9986     CM DSOA Core_mid,        !- Design Specification Outdoor Air Object Name 1
   9987     CM DSZAD Core_mid,       !- Design Specification Zone Air Distribution Object Name 1
   9988     Perimeter_mid_ZN_1,      !- Zone 2 Name
   9989     CM DSOA Perimeter_mid_ZN_1,  !- Design Specification Outdoor Air Object Name 2
   9990     CM DSZAD Perimeter_mid_ZN_1,  !- Design Specification Zone Air Distribution Object Name 2
   9991     Perimeter_mid_ZN_2,      !- Zone 3 Name
   9992     CM DSOA Perimeter_mid_ZN_2,  !- Design Specification Outdoor Air Object Name 3
   9993     CM DSZAD Perimeter_mid_ZN_2,  !- Design Specification Zone Air Distribution Object Name 3
   9994     Perimeter_mid_ZN_3,      !- Zone 4 Name
   9995     CM DSOA Perimeter_mid_ZN_3,  !- Design Specification Outdoor Air Object Name 4
   9996     CM DSZAD Perimeter_mid_ZN_3,  !- Design Specification Zone Air Distribution Object Name 4
   9997     Perimeter_mid_ZN_4,      !- Zone 5 Name
   9998     CM DSOA Perimeter_mid_ZN_4,  !- Design Specification Outdoor Air Object Name 5
   9999     CM DSZAD Perimeter_mid_ZN_4;  !- Design Specification Zone Air Distribution Object Name 5
  10000 
  10001 DesignSpecification:ZoneAirDistribution,
  10002     CM DSZAD Core_mid,       !- Name
  10003     1,                       !- Zone Air Distribution Effectiveness in Cooling Mode {dimensionless}
  10004     1;                       !- Zone Air Distribution Effectiveness in Heating Mode {dimensionless}
  10005 
  10006 DesignSpecification:ZoneAirDistribution,
  10007     CM DSZAD Perimeter_mid_ZN_1,  !- Name
  10008     1,                       !- Zone Air Distribution Effectiveness in Cooling Mode {dimensionless}
  10009     1;                       !- Zone Air Distribution Effectiveness in Heating Mode {dimensionless}
  10010 
  10011 DesignSpecification:ZoneAirDistribution,
  10012     CM DSZAD Perimeter_mid_ZN_2,  !- Name
  10013     1,                       !- Zone Air Distribution Effectiveness in Cooling Mode {dimensionless}
  10014     1;                       !- Zone Air Distribution Effectiveness in Heating Mode {dimensionless}
  10015 
  10016 DesignSpecification:ZoneAirDistribution,
  10017     CM DSZAD Perimeter_mid_ZN_3,  !- Name
  10018     1,                       !- Zone Air Distribution Effectiveness in Cooling Mode {dimensionless}
  10019     1;                       !- Zone Air Distribution Effectiveness in Heating Mode {dimensionless}
  10020 
  10021 DesignSpecification:ZoneAirDistribution,
  10022     CM DSZAD Perimeter_mid_ZN_4,  !- Name
  10023     1,                       !- Zone Air Distribution Effectiveness in Cooling Mode {dimensionless}
  10024     1;                       !- Zone Air Distribution Effectiveness in Heating Mode {dimensionless}
  10025 
  10026 DesignSpecification:OutdoorAir,
  10027     CM DSOA Core_mid,        !- Name
  10028     Sum,                     !- Outdoor Air Method
  10029     0.00000001,              !- Outdoor Air Flow per Person {m3/s-person}
  10030     0.000431773;             !- Outdoor Air Flow per Zone Floor Area {m3/s-m2}
  10031 
  10032 DesignSpecification:OutdoorAir,
  10033     CM DSOA Perimeter_mid_ZN_1,  !- Name
  10034     Sum,                     !- Outdoor Air Method
  10035     0.00000001,              !- Outdoor Air Flow per Person {m3/s-person}
  10036     0.000431773;             !- Outdoor Air Flow per Zone Floor Area {m3/s-m2}
  10037 
  10038 DesignSpecification:OutdoorAir,
  10039     CM DSOA Perimeter_mid_ZN_2,  !- Name
  10040     Sum,                     !- Outdoor Air Method
  10041     0.00000001,              !- Outdoor Air Flow per Person {m3/s-person}
  10042     0.000431773;             !- Outdoor Air Flow per Zone Floor Area {m3/s-m2}
  10043 
  10044 DesignSpecification:OutdoorAir,
  10045     CM DSOA Perimeter_mid_ZN_3,  !- Name
  10046     Sum,                     !- Outdoor Air Method
  10047     0.00000001,              !- Outdoor Air Flow per Person {m3/s-person}
  10048     0.000431773;             !- Outdoor Air Flow per Zone Floor Area {m3/s-m2}
  10049 
  10050 DesignSpecification:OutdoorAir,
  10051     CM DSOA Perimeter_mid_ZN_4,  !- Name
  10052     Sum,                     !- Outdoor Air Method
  10053     0.00000001,              !- Outdoor Air Flow per Person {m3/s-person}
  10054     0.000431773;             !- Outdoor Air Flow per Zone Floor Area {m3/s-m2}
  10055 
  10056 EnergyManagementSystem:Sensor,
  10057     Facility_Int_LTG,        !- Name
  10058     ,                        !- Output:Variable or Output:Meter Index Key Name
  10059     InteriorLights:Electricity;  !- Output:Variable or Output:Meter Name
  10060 
  10061 EnergyManagementSystem:GlobalVariable,
  10062     Wired_LTG;               !- Erl Variable 1 Name
  10063 
  10064 EnergyManagementSystem:Program,
  10065     Transformer_Load_Prog,   !- Name
  10066     SET Wired_LTG = Facility_Int_LTG*0.0281;  !- Program Line 1
  10067 
  10068 EnergyManagementSystem:ProgramCallingManager,
  10069     Transformer_Load_Prog_Manager,  !- Name
  10070     AfterPredictorAfterHVACManagers,  !- EnergyPlus Model Calling Point
  10071     Transformer_Load_Prog;   !- Program Name 1
  10072 
  10073 EnergyManagementSystem:OutputVariable,
  10074     Wired_LTG,               !- Name
  10075     Wired_LTG,               !- EMS Variable Name
  10076     Summed,                  !- Type of Data in Variable
  10077     ZoneTimeStep,            !- Update Frequency
  10078     ,                        !- EMS Program or Subroutine Name
  10079     J;                       !- Units
  10080 
  10081 Meter:Custom,
  10082     Wired_LTG_Electricity,   !- Name
  10083     Electricity,             !- Fuel Type
  10084     ,                        !- Key Name 1
  10085     Wired_LTG;               !- Output Variable or Meter Name 1
  10086 
  10087 Meter:CustomDecrement,
  10088     Wired_Int_EQUIP,         !- Name
  10089     Electricity,             !- Fuel Type
  10090     InteriorEquipment:Electricity,  !- Source Meter Name
  10091     Core_bottom_Elevators_Equip,  !- Key Name 1
  10092     Electric Equipment Electric Energy;  !- Output Variable or Meter Name 1
  10093 
  10094 ElectricLoadCenter:Transformer,
  10095     Transformer 1,           !- Name
  10096     Always_On,               !- Availability Schedule Name
  10097     PowerInFromGrid,         !- Transformer Usage
  10098     ,                        !- Zone Name
  10099     ,                        !- Radiative Fraction
  10100     45000,                   !- Rated Capacity {VA}
  10101     3,                       !- Phase
  10102     Aluminum,                !- Conductor Material
  10103     150,                     !- Full Load Temperature Rise {C}
  10104     0.1,                     !- Fraction of Eddy Current Losses
  10105     NominalEfficiency,       !- Performance Input Method
  10106     ,                        !- Rated No Load Loss {W}
  10107     ,                        !- Rated Load Loss {W}
  10108     0.977,                   !- Nameplate Efficiency
  10109     0.35,                    !- Per Unit Load for Nameplate Efficiency
  10110     75,                      !- Reference Temperature for Nameplate Efficiency {C}
  10111     ,                        !- Per Unit Load for Maximum Efficiency
  10112     Yes,                     !- Consider Transformer Loss for Utility Cost
  10113     Wired_LTG_Electricity,   !- Meter 1 Name
  10114     Wired_INT_EQUIP;         !- Meter 2 Name
  10115 
  10116 !
  10117 ! End Addendum O transformers implementation
  10118 !
  10119 EnergyManagementSystem:Sensor,
  10120     OAT,                     !- Name
  10121     Environment,             !- Output:Variable or Output:Meter Index Key Name
  10122     Site Outdoor Air Drybulb Temperature;  !- Output:Variable or Output:Meter Name
  10123 
  10124 EnergyManagementSystem:Actuator,
  10125     CLGSETP_SCH_Actuator,    !- Name
  10126     CLGSETP_SCH_Yes_Optimum, !- Actuated Component Unique Name
  10127     Schedule:Compact,        !- Actuated Component Type
  10128     Schedule Value;          !- Actuated Component Control Type
  10129 
  10130 EnergyManagementSystem:Actuator,
  10131     HTGSETP_SCH_Actuator,    !- Name
  10132     HTGSETP_SCH_Yes_Optimum, !- Actuated Component Unique Name
  10133     Schedule:Compact,        !- Actuated Component Type
  10134     Schedule Value;          !- Actuated Component Control Type
  10135 
  10136 EnergyManagementSystem:ProgramCallingManager,
  10137     OA_BASED_OPTIMUM_START_EMS_Program Manager,  !- Name
  10138     BeginTimestepBeforePredictor,  !- EnergyPlus Model Calling Point
  10139     OA_BASED_OPTIMUM_START_EMS_Program;  !- Program Name 1
  10140 
  10141 EnergyManagementSystem:Program,
  10142     OA_BASED_OPTIMUM_START_EMS_Program,  !- Name
  10143     IF DaylightSavings==0 && DayOfWeek>1 && Hour==5 && OAT<23.9 && OAT>1.7,  !- Program Line 1
  10144     SET CLGSETP_SCH_Actuator = 26.7,  !- Program Line 2
  10145     SET HTGSETP_SCH_Actuator = 15.6,  !- A4
  10146     ELSEIF DaylightSavings==1 && DayOfWeek>1 && Hour==4 && OAT<23.9 && OAT>1.7,  !- A5
  10147     SET CLGSETP_SCH_Actuator = 26.7,  !- A6
  10148     SET HTGSETP_SCH_Actuator = 15.6,  !- A7
  10149     ELSE,                    !- A8
  10150     SET CLGSETP_SCH_Actuator = NULL,  !- A9
  10151     SET HTGSETP_SCH_Actuator = NULL,  !- A10
  10152     ENDIF;                   !- A11
  10153 
  Processing Input Data File (in.idf) -- Complete
  Maximum number of Alpha IDF Args=          94
  Maximum number of Numeric IDF Args=          22
  Number of IDF "Lines"=         925
  Number of Defaulted Fields=         108
  Number of Fields with Defaults=        1890
  Number of Autosized Fields=          80
  Number of Autosizable Fields =         113
  Number of Autocalculated Fields=         143
  Number of Autocalculatable Fields =         252
 Getting object=VERSION
 Getting object=HEATBALANCEALGORITHM
 Getting object=TIMESTEP
 Getting object=SIMULATIONCONTROL
 Getting object=OUTPUT:SURFACES:LIST
 Getting object=OUTPUT:SURFACES:DRAWING
 Getting object=OUTPUT:VARIABLEDICTIONARY
 Getting object=OUTPUT:CONSTRUCTIONS
 Getting object=OUTPUT:ENERGYMANAGEMENTSYSTEM
 Getting object=BRANCH
 Getting object=CURVE:BIQUADRATIC
 Getting object=CURVE:QUADRATIC
 Getting object=NODELIST
 Getting object=BRANCHLIST
 Getting object=DESIGNSPECIFICATION:OUTDOORAIR
 Getting object=DESIGNSPECIFICATION:ZONEAIRDISTRIBUTION
 Getting object=SIZING:PARAMETERS
 Getting object=ZONE
 Getting object=SIZING:ZONE
 Getting object=SIZING:SYSTEM
 Getting object=SIZING:PLANT
 Getting object=OUTPUT:TABLE:SUMMARYREPORTS
 Getting object=SIZINGPERIOD:DESIGNDAY
 Getting object=RUNPERIOD
 Getting object=RUNPERIODCONTROL:SPECIALDAYS
 Getting object=RUNPERIODCONTROL:DAYLIGHTSAVINGTIME
 Getting object=SITE:LOCATION
 Getting object=SITE:GROUNDTEMPERATURE:BUILDINGSURFACE
 Getting object=SITE:WATERMAINSTEMPERATURE
 Getting object=OUTPUT:VARIABLE
 Getting object=SCHEDULE:COMPACT
  Processing Schedule Input -- Start
 Getting object=SCHEDULETYPELIMITS
  Processing Schedule Input -- Complete
 Getting object=BUILDING
 Getting object=SURFACECONVECTIONALGORITHM:INSIDE
 Getting object=SURFACECONVECTIONALGORITHM:OUTSIDE
 Getting object=MATERIAL
 Getting object=MATERIAL:NOMASS
 Getting object=WINDOWMATERIAL:GLAZING
 Getting object=WINDOWMATERIAL:GAS
 Getting object=CONSTRUCTION
 Getting object=GLOBALGEOMETRYRULES
 Getting object=BUILDINGSURFACE:DETAILED
 Getting object=FENESTRATIONSURFACE:DETAILED
 Getting object=INTERNALMASS
 Getting object=PEOPLE
 Getting object=LIGHTS
 Getting object=ELECTRICEQUIPMENT
 Getting object=SHADOWCALCULATION
 Getting object=DAYLIGHTING:CONTROLS
 Getting object=WATERHEATER:MIXED
 Getting object=ZONEINFILTRATION:DESIGNFLOWRATE
 Getting object=OUTDOORAIR:NODELIST
 Getting object=OUTDOORAIR:NODE
 Getting object=ZONECONTROL:THERMOSTAT
 Getting object=THERMOSTATSETPOINT:DUALSETPOINT
 Getting object=ENERGYMANAGEMENTSYSTEM:SENSOR
 Getting object=ENERGYMANAGEMENTSYSTEM:ACTUATOR
 Getting object=ENERGYMANAGEMENTSYSTEM:GLOBALVARIABLE
 Getting object=ENERGYMANAGEMENTSYSTEM:PROGRAM
 Getting object=ENERGYMANAGEMENTSYSTEM:OUTPUTVARIABLE
 Getting object=ENERGYMANAGEMENTSYSTEM:PROGRAMCALLINGMANAGER
 Getting object=SETPOINTMANAGER:SCHEDULED
 Getting object=SETPOINTMANAGER:MIXEDAIR
 Getting object=PLANTLOOP
 Getting object=AVAILABILITYMANAGER:NIGHTCYCLE
 Getting object=AVAILABILITYMANAGERASSIGNMENTLIST
 Getting object=CONNECTORLIST
 Getting object=CONNECTOR:SPLITTER
 Getting object=CONNECTOR:MIXER
 Getting object=ZONEHVAC:EQUIPMENTCONNECTIONS
 Getting object=ZONEHVAC:EQUIPMENTLIST
 Getting object=AIRLOOPHVAC:SUPPLYPATH
 Getting object=AIRLOOPHVAC:RETURNPATH
 Getting object=WATERUSE:EQUIPMENT
 Getting object=WATERUSE:CONNECTIONS
 Getting object=ELECTRICLOADCENTER:TRANSFORMER
 Getting object=AIRLOOPHVAC:ZONESPLITTER
 Getting object=ZONEHVAC:AIRDISTRIBUTIONUNIT
 Getting object=AIRTERMINAL:SINGLEDUCT:VAV:REHEAT
 Getting object=COIL:HEATING:ELECTRIC
 Getting object=COIL:HEATING:GAS
 Getting object=AIRLOOPHVAC:RETURNPLENUM
 Getting object=AIRLOOPHVAC:ZONEMIXER
 Getting object=AIRLOOPHVAC
 Getting object=AIRLOOPHVAC:CONTROLLERLIST
 Getting object=AIRLOOPHVAC:OUTDOORAIRSYSTEM
 Getting object=AIRLOOPHVAC:OUTDOORAIRSYSTEM:EQUIPMENTLIST
 Getting object=OUTDOORAIR:MIXER
 Getting object=EXTERIOR:LIGHTS
 Getting object=CONTROLLER:OUTDOORAIR
 Getting object=CONTROLLER:MECHANICALVENTILATION
 Getting object=COILSYSTEM:COOLING:DX
 Getting object=COIL:COOLING:DX:TWOSPEED
 Getting object=FAN:VARIABLEVOLUME
 Getting object=PIPE:ADIABATIC
 Getting object=PLANTEQUIPMENTOPERATIONSCHEMES
 Getting object=PLANTEQUIPMENTOPERATION:HEATINGLOAD
 Getting object=PLANTEQUIPMENTLIST
 Getting object=PUMP:CONSTANTSPEED
 Getting object=METER:CUSTOM
 Getting object=METER:CUSTOMDECREMENT
 Getting object=OUTPUT:METER:METERFILEONLY
 Getting object=OUTPUT:TABLE:MONTHLY
 Getting object=OUTPUTCONTROL:TABLE:STYLE
 MonthlyInputCount=          19
 sizeMonthlyInput=          25
 MonthlyFieldSetInputCount=         144
 sizeMonthlyFieldSetInput=         150
 MonthlyTablesCount=         168
 MonthlyColumnsCount=         928
 sizeReportName=         100
 numReportName=          13
 sizeSubTable=         100
 numSubTable=          63
 sizeColumnTag=         400
 numColumnTag=         397
 sizeTableEntry=        5500
 numTableEntry=        5481
 sizeCompSizeTableEntry=         100
 numCompSizeTableEntry=          65
 NumOfRVariable=       16364
 NumOfRVariable(Total)=       16364
 NumOfRVariable(Actual)=         688
 NumOfRVariable(Summed)=         572
 NumOfRVariable(Meter)=         196
 NumOfIVariable=         723
 NumOfIVariable(Total)=         723
 NumOfIVariable(Actual)=           0
 NumOfIVariable(Summed)=           0
 MaxRVariable=        1000
 MaxIVariable=          10
 NumEnergyMeters=         160
 NumVarMeterArrays=         197
 maxUniqueKeyCount=        1500
 maxNumberOfFigures=           1
 MAXHCArrayBounds=          10
 MaxVerticesPerSurface=           4
 NumReportList=         500
 InstMeterCacheSize=        1000
 ClippingAlgorithm=SutherlandHodgman
 MonthlyFieldSetInputCount=         144
 NumConsideredOutputVariables=          78
 MaxConsideredOutputVariables=          78
 numActuatorsUsed=           3
 numEMSActuatorsAvailable=        2389
 maxEMSActuatorsAvailable=        3000
 numInternalVariablesUsed=           0
 numEMSInternalVarsAvailable=         460
 maxEMSInternalVarsAvailable=        1000
 NumOfNodeConnections=         443
 MaxNumOfNodeConnections=        1000
