Program Version,EnergyPlus-Windows-64 8.0.0.007, YMD=2019.06.17 14:00
! <Version>, Version ID
 Version, 8.0
! <Timesteps per Hour>, #TimeSteps, Minutes per TimeStep {minutes}
 Timesteps per Hour,  4, 15
! <System Convergence Limits>, Minimum System TimeStep {minutes}, Max HVAC Iterations,  Minimum Plant Iterations, Maximum Plant Iterations
 System Convergence Limits, 1, 20, 2, 8
! <Simulation Control>, Do Zone Sizing, Do System Sizing, Do Plant Sizing, Do Design Days, Do Weather Simulation
 Simulation Control, Yes, Yes, Yes, Yes, Yes
! <Output Reporting Tolerances>, Tolerance for Time Heating Setpoint Not Met, Tolerance for Zone Cooling Setpoint Not Met Time
 Output Reporting Tolerances, 0.200, 0.200, 
! <Site:GroundTemperature:BuildingSurface>, Months From Jan to Dec {C}
 Site:GroundTemperature:BuildingSurface,  20.50,  20.43,  20.44,  20.50,  20.57,  22.79,  23.21,  23.31,  23.33,  21.11,  20.76,  20.61
! <Site:GroundTemperature:FCfactorMethod>, Months From Jan to Dec {C}
 Site:GroundTemperature:FCfactorMethod,  -2.87,  -0.64,   3.71,   7.83,  15.62,  19.72,  20.85,  18.77,  13.96,   7.98,   2.08,  -1.81
! <Site:GroundTemperature:Shallow>, Months From Jan to Dec {C}
 Site:GroundTemperature:Shallow,  13.00,  13.00,  13.00,  13.00,  13.00,  13.00,  13.00,  13.00,  13.00,  13.00,  13.00,  13.00
! <Site:GroundTemperature:Deep>, Months From Jan to Dec {C}
 Site:GroundTemperature:Deep,  16.00,  16.00,  16.00,  16.00,  16.00,  16.00,  16.00,  16.00,  16.00,  16.00,  16.00,  16.00
! <Site:GroundReflectance>, Months From Jan to Dec {dimensionless}
 Site:GroundReflectance,  0.20,  0.20,  0.20,  0.20,  0.20,  0.20,  0.20,  0.20,  0.20,  0.20,  0.20,  0.20
! <Site:GroundReflectance:SnowModifier>, Normal, Daylighting {dimensionless}
 Site:GroundReflectance:SnowModifier,   1.000,   1.000
! <Site:GroundReflectance:Snow>, Months From Jan to Dec {dimensionless}
 Site:GroundReflectance:Snow,  0.20,  0.20,  0.20,  0.20,  0.20,  0.20,  0.20,  0.20,  0.20,  0.20,  0.20,  0.20
! <Site:GroundReflectance:Snow:Daylighting>, Months From Jan to Dec {dimensionless}
 Site:GroundReflectance:Snow:Daylighting,  0.20,  0.20,  0.20,  0.20,  0.20,  0.20,  0.20,  0.20,  0.20,  0.20,  0.20,  0.20
! <Environment:Weather Station>,Wind Sensor Height Above Ground {m},Wind Speed Profile Exponent {},Wind Speed Profile Boundary Layer Thickness {m},Air Temperature Sensor Height Above Ground {m},Wind Speed Modifier Coefficient [Internal],Temperature Modifier Coefficient [Internal]
Environment:Weather Station,10.000,0.140,270.000,1.500,1.586,9.750E-003
! <Site:Location>, Location Name, Latitude {N+/S- Deg}, Longitude {E+/W- Deg},  Time Zone Number {GMT+/-}, Elevation {m},  Standard Pressure at Elevation {Pa}, Standard RhoAir at Elevation
Site:Location,Buffalo Niagara Intl Ap NY USA TMY3 WMO#=725280,42.93,-78.73,-5.00,215.00,98769,1.1739
! <Building Information>, Building Name,North Axis {deg},Terrain,  Loads Convergence Tolerance Value,Temperature Convergence Tolerance Value,  Solar Distribution,Maximum Number of Warmup Days,Minimum Number of Warmup Days
 Building Information,Medium Office,0.000,City,4.00000E-002,0.20000,FullInteriorAndExterior,25,6
! <Inside Convection Algorithm>, Algorithm {Simple | TARP | CeilingDiffuser | AdaptiveConvectionAlgorithm}
Inside Convection Algorithm,TARP
! <Outside Convection Algorithm>, Algorithm {SimpleCombined | TARP | MoWitt | DOE-2 | AdaptiveConvectionAlgorithm}
Outside Convection Algorithm,TARP
! <Sky Radiance Distribution>, Value {Anisotropic}
Sky Radiance Distribution,Anisotropic
! <Zone Air Solution Algorithm>, Value {ThirdOrderBackwardDifference | AnalyticalSolution | EulerMethod}
 Zone Air Solution Algorithm, ThirdOrderBackwardDifference
! <Zone Air Contaminant Balance Simulation>, Simulation {Yes/No}, Carbon Dioxide Concentration
 Zone Air Carbon Dioxide Balance Simulation, No,N/A
! <Zone Air Contaminant Balance Simulation>, Simulation {Yes/No}, Generic Contaminant Concentration
 Zone Air Generic Contaminant Balance Simulation, No,N/A
! <Environment:Site Atmospheric Variation>,Wind Speed Profile Exponent {},Wind Speed Profile Boundary Layer Thickness {m},Air Temperature Gradient Coefficient {K/m}
Environment:Site Atmospheric Variation,0.330,460.000,6.500000E-003
! <SurfaceGeometry>,Starting Corner,Vertex Input Direction,Coordinate System,Daylight Reference Point Coordinate System,Rectangular (Simple) Surface Coordinate System
 Surface Geometry,UpperLeftCorner,Counterclockwise,RelativeCoordinateSystem,RelativeCoordinateSystem,RelativeToZoneOrigin
! <Surface Heat Transfer Algorithm>, Value {CTF - ConductionTransferFunction | EMPD - MoisturePenetrationDepthConductionTransferFunction | CondFD - ConductionFiniteDifference | HAMT - CombinedHeatAndMoistureFiniteElement} - Description,Inside Surface Max Temperature Limit{C}, Surface Convection Coefficient Lower Limit {W/m2-K}, Surface Convection Coefficient Upper Limit {W/m2-K}
Surface Heat Transfer Algorithm, CTF - ConductionTransferFunction,200,0.10,1000.0
! <Shading Summary>, Number of Fixed Detached Shades, Number of Building Detached Shades, Number of Attached Shades
 Shading Summary,0,0,0
! <Zone Summary>, Number of Zones, Number of Zone Surfaces, Number of SubSurfaces
 Zone Summary,18,167,24
! <Zone Information>,Zone Name,North Axis {deg},Origin X-Coordinate {m},Origin Y-Coordinate {m},Origin Z-Coordinate {m},Centroid X-Coordinate {m},Centroid Y-Coordinate {m},Centroid Z-Coordinate {m},Type,Zone Multiplier,Zone List Multiplier,Minimum X {m},Maximum X {m},Minimum Y {m},Maximum Y {m},Minimum Z {m},Maximum Z {m},Ceiling Height {m},Volume {m3},Zone Inside Convection Algorithm {Simple-Detailed-CeilingDiffuser-TrombeWall},Zone Outside Convection Algorithm {Simple-Detailed-Tarp-MoWitt-DOE-2-BLAST}, Floor Area {m2},Exterior Gross Wall Area {m2},Exterior Net Wall Area {m2},Exterior Window Area {m2}, Number of Surfaces, Number of SubSurfaces, Number of Shading SubSurfaces,  Part of Total Building Area
 Zone Information, CORE_BOTTOM,0.0,0.00,0.00,0.00,24.96,16.64,1.37,1,1,1,4.57,45.34,4.57,28.70,0.00,2.74,2.74,2698.04,TARP,TARP,983.54,0.00,0.00,0.00,6,0,0,Yes
 Zone Information, TOPFLOOR_PLENUM,0.0,0.00,0.00,0.00,24.96,16.64,11.28,1,1,1,0.00,49.91,0.00,33.27,10.67,11.89,1.22,2024.76,TARP,TARP,1660.73,202.84,202.84,0.00,10,0,0,No
 Zone Information, MIDFLOOR_PLENUM,0.0,0.00,0.00,0.00,24.96,16.64,7.32,1,1,1,0.00,49.91,0.00,33.27,6.71,7.92,1.22,2024.76,TARP,TARP,1660.73,202.84,202.84,0.00,14,0,0,No
 Zone Information, FIRSTFLOOR_PLENUM,0.0,0.00,0.00,0.00,24.96,16.64,3.35,1,1,1,0.00,49.91,0.00,33.27,2.74,3.96,1.22,2024.76,TARP,TARP,1660.73,202.84,202.84,0.00,14,0,0,No
 Zone Information, CORE_MID,0.0,0.00,0.00,0.00,24.96,16.64,5.33,1,1,1,4.57,45.34,4.57,28.70,3.96,6.71,2.74,2698.04,TARP,TARP,983.54,0.00,0.00,0.00,6,0,0,Yes
 Zone Information, CORE_TOP,0.0,0.00,0.00,0.00,24.96,16.64,9.30,1,1,1,4.57,45.34,4.57,28.70,7.92,10.67,2.74,2698.04,TARP,TARP,983.54,0.00,0.00,0.00,6,0,0,Yes
 Zone Information, PERIMETER_TOP_ZN_3,0.0,0.00,0.00,0.00,24.96,31.11,9.30,1,1,1,0.00,49.91,28.70,33.27,7.92,10.67,2.74,568.77,TARP,TARP,207.34,136.92,71.65,65.26,6,1,0,Yes
 Zone Information, PERIMETER_TOP_ZN_2,0.0,0.00,0.00,0.00,47.82,16.64,9.30,1,1,1,45.34,49.91,0.00,33.27,7.92,10.67,2.74,360.08,TARP,TARP,131.26,91.28,47.77,43.51,6,1,0,Yes
 Zone Information, PERIMETER_TOP_ZN_1,0.0,0.00,0.00,0.00,24.96,2.16,9.30,1,1,1,0.00,49.91,0.00,4.57,7.92,10.67,2.74,568.77,TARP,TARP,207.34,136.92,71.65,65.26,6,1,0,Yes
 Zone Information, PERIMETER_TOP_ZN_4,0.0,0.00,0.00,0.00,2.09,16.64,9.30,1,1,1,0.00,4.57,0.00,33.27,7.92,10.67,2.74,360.05,TARP,TARP,131.25,91.28,47.77,43.51,6,1,0,Yes
 Zone Information, PERIMETER_BOT_ZN_3,0.0,0.00,0.00,0.00,24.96,31.11,1.37,1,1,1,0.00,49.91,28.70,33.27,0.00,2.74,2.74,568.77,TARP,TARP,207.34,136.92,67.76,65.26,6,5,0,Yes
 Zone Information, PERIMETER_BOT_ZN_2,0.0,0.00,0.00,0.00,47.82,16.64,1.37,1,1,1,45.34,49.91,0.00,33.27,0.00,2.74,2.74,360.08,TARP,TARP,131.26,91.28,45.82,43.51,6,3,0,Yes
 Zone Information, PERIMETER_BOT_ZN_1,0.0,0.00,0.00,0.00,24.96,2.16,1.37,1,1,1,0.00,49.91,0.00,4.57,0.00,2.74,2.74,568.77,TARP,TARP,207.34,136.92,67.76,65.26,6,5,0,Yes
 Zone Information, PERIMETER_BOT_ZN_4,0.0,0.00,0.00,0.00,2.09,16.64,1.37,1,1,1,0.00,4.57,0.00,33.27,0.00,2.74,2.74,360.05,TARP,TARP,131.25,91.28,45.82,43.51,6,3,0,Yes
 Zone Information, PERIMETER_MID_ZN_3,0.0,0.00,0.00,0.00,24.96,31.11,5.33,1,1,1,0.00,49.91,28.70,33.27,3.96,6.71,2.74,568.77,TARP,TARP,207.34,136.92,71.65,65.26,6,1,0,Yes
 Zone Information, PERIMETER_MID_ZN_2,0.0,0.00,0.00,0.00,47.82,16.64,5.33,1,1,1,45.34,49.91,0.00,33.27,3.96,6.71,2.74,360.08,TARP,TARP,131.26,91.28,47.77,43.51,6,1,0,Yes
 Zone Information, PERIMETER_MID_ZN_1,0.0,0.00,0.00,0.00,24.96,2.16,5.33,1,1,1,0.00,49.91,0.00,4.57,3.96,6.71,2.74,568.77,TARP,TARP,207.34,136.92,71.65,65.26,6,1,0,Yes
 Zone Information, PERIMETER_MID_ZN_4,0.0,0.00,0.00,0.00,2.09,16.64,5.33,1,1,1,0.00,4.57,0.00,33.27,3.96,6.71,2.74,360.05,TARP,TARP,131.25,91.28,47.77,43.51,6,1,0,Yes
! <Zone Internal Gains/Equipment Information - Nominal>,Zone Name, Floor Area {m2},# Occupants,Area per Occupant {m2/person},Occupant per Area {person/m2},Interior Lighting {W/m2},Electric Load {W/m2},Gas Load {W/m2},Other Load {W/m2},Hot Water Eq {W/m2},Steam Equipment {W/m2},Sum Loads per Area {W/m2},Outdoor Controlled Baseboard Heat
 Zone Internal Gains, CORE_BOTTOM,983.54,52.9,18.579,5.382E-002,8.503,40.844,0.000,0.000,0.000,0.000,49.348,No
 Zone Internal Gains, TOPFLOOR_PLENUM,1660.73,0.0,N/A,0.000,0.000,0.000,0.000,0.000,0.000,0.000,0.000,No
 Zone Internal Gains, MIDFLOOR_PLENUM,1660.73,0.0,N/A,0.000,0.000,0.000,0.000,0.000,0.000,0.000,0.000,No
 Zone Internal Gains, FIRSTFLOOR_PLENUM,1660.73,0.0,N/A,0.000,0.000,0.000,0.000,0.000,0.000,0.000,0.000,No
 Zone Internal Gains, CORE_MID,983.54,52.9,18.579,5.382E-002,8.503,8.070,0.000,0.000,0.000,0.000,16.574,No
 Zone Internal Gains, CORE_TOP,983.54,52.9,18.579,5.382E-002,8.503,8.070,0.000,0.000,0.000,0.000,16.574,No
 Zone Internal Gains, PERIMETER_TOP_ZN_3,207.34,11.2,18.579,5.382E-002,8.503,8.070,0.000,0.000,0.000,0.000,16.573,No
 Zone Internal Gains, PERIMETER_TOP_ZN_2,131.26,7.1,18.579,5.382E-002,8.503,8.069,0.000,0.000,0.000,0.000,16.573,No
 Zone Internal Gains, PERIMETER_TOP_ZN_1,207.34,11.2,18.579,5.382E-002,8.503,8.070,0.000,0.000,0.000,0.000,16.573,No
 Zone Internal Gains, PERIMETER_TOP_ZN_4,131.25,7.1,18.579,5.382E-002,8.503,8.070,0.000,0.000,0.000,0.000,16.573,No
 Zone Internal Gains, PERIMETER_BOT_ZN_3,207.34,11.2,18.579,5.382E-002,8.503,8.070,0.000,0.000,0.000,0.000,16.573,No
 Zone Internal Gains, PERIMETER_BOT_ZN_2,131.26,7.1,18.579,5.382E-002,8.503,8.069,0.000,0.000,0.000,0.000,16.573,No
 Zone Internal Gains, PERIMETER_BOT_ZN_1,207.34,11.2,18.579,5.382E-002,8.503,8.070,0.000,0.000,0.000,0.000,16.573,No
 Zone Internal Gains, PERIMETER_BOT_ZN_4,131.25,7.1,18.579,5.382E-002,8.503,8.070,0.000,0.000,0.000,0.000,16.573,No
 Zone Internal Gains, PERIMETER_MID_ZN_3,207.34,11.2,18.579,5.382E-002,8.503,8.070,0.000,0.000,0.000,0.000,16.573,No
 Zone Internal Gains, PERIMETER_MID_ZN_2,131.26,7.1,18.579,5.382E-002,8.503,8.069,0.000,0.000,0.000,0.000,16.573,No
 Zone Internal Gains, PERIMETER_MID_ZN_1,207.34,11.2,18.579,5.382E-002,8.503,8.070,0.000,0.000,0.000,0.000,16.573,No
 Zone Internal Gains, PERIMETER_MID_ZN_4,131.25,7.1,18.579,5.382E-002,8.503,8.070,0.000,0.000,0.000,0.000,16.573,No
! <People Internal Gains - Nominal>,Name,Schedule Name,Zone Name,Zone Floor Area {m2},# Zone Occupants,Number of People {},People/Floor Area {person/m2},Floor Area per person {m2/person},Fraction Radiant,Fraction Convected,Sensible Fraction Calculation,Activity level,ASHRAE 55 Warnings,Carbon Dioxide Generation Rate,Nominal Minimum Number of People,Nominal Maximum Number of People,MRT Calculation Type,Work Efficiency,Clothing,Air Velocity,Fanger Calculation,Pierce Calculation,KSU Calculation
 People Internal Gains, CORE_BOTTOM,BLDG_OCC_SCH,CORE_BOTTOM,983.54,52.9,52.9,5.382E-002,18.579,0.300,0.700,AutoCalculate,ACTIVITY_SCH,No,3.8200E-008,0,53,Zone Averaged,WORK_EFF_SCH,CLOTHING_SCH,AIR_VELO_SCH,Yes,No,No
 People Internal Gains, CORE_MID,BLDG_OCC_SCH,CORE_MID,983.54,52.9,52.9,5.382E-002,18.579,0.300,0.700,AutoCalculate,ACTIVITY_SCH,No,3.8200E-008,0,53,Zone Averaged,WORK_EFF_SCH,CLOTHING_SCH,AIR_VELO_SCH,Yes,No,No
 People Internal Gains, CORE_TOP,BLDG_OCC_SCH,CORE_TOP,983.54,52.9,52.9,5.382E-002,18.579,0.300,0.700,AutoCalculate,ACTIVITY_SCH,No,3.8200E-008,0,53,Zone Averaged,WORK_EFF_SCH,CLOTHING_SCH,AIR_VELO_SCH,Yes,No,No
 People Internal Gains, PERIMETER_TOP_ZN_3,BLDG_OCC_SCH,PERIMETER_TOP_ZN_3,207.34,11.2,11.2,5.382E-002,18.579,0.300,0.700,AutoCalculate,ACTIVITY_SCH,No,3.8200E-008,0,11,Zone Averaged,WORK_EFF_SCH,CLOTHING_SCH,AIR_VELO_SCH,Yes,No,No
 People Internal Gains, PERIMETER_TOP_ZN_2,BLDG_OCC_SCH,PERIMETER_TOP_ZN_2,131.26,7.1,7.1,5.382E-002,18.579,0.300,0.700,AutoCalculate,ACTIVITY_SCH,No,3.8200E-008,0,7,Zone Averaged,WORK_EFF_SCH,CLOTHING_SCH,AIR_VELO_SCH,Yes,No,No
 People Internal Gains, PERIMETER_TOP_ZN_1,BLDG_OCC_SCH,PERIMETER_TOP_ZN_1,207.34,11.2,11.2,5.382E-002,18.579,0.300,0.700,AutoCalculate,ACTIVITY_SCH,No,3.8200E-008,0,11,Zone Averaged,WORK_EFF_SCH,CLOTHING_SCH,AIR_VELO_SCH,Yes,No,No
 People Internal Gains, PERIMETER_TOP_ZN_4,BLDG_OCC_SCH,PERIMETER_TOP_ZN_4,131.25,7.1,7.1,5.382E-002,18.579,0.300,0.700,AutoCalculate,ACTIVITY_SCH,No,3.8200E-008,0,7,Zone Averaged,WORK_EFF_SCH,CLOTHING_SCH,AIR_VELO_SCH,Yes,No,No
 People Internal Gains, PERIMETER_BOT_ZN_3,BLDG_OCC_SCH,PERIMETER_BOT_ZN_3,207.34,11.2,11.2,5.382E-002,18.579,0.300,0.700,AutoCalculate,ACTIVITY_SCH,No,3.8200E-008,0,11,Zone Averaged,WORK_EFF_SCH,CLOTHING_SCH,AIR_VELO_SCH,Yes,No,No
 People Internal Gains, PERIMETER_BOT_ZN_2,BLDG_OCC_SCH,PERIMETER_BOT_ZN_2,131.26,7.1,7.1,5.382E-002,18.579,0.300,0.700,AutoCalculate,ACTIVITY_SCH,No,3.8200E-008,0,7,Zone Averaged,WORK_EFF_SCH,CLOTHING_SCH,AIR_VELO_SCH,Yes,No,No
 People Internal Gains, PERIMETER_BOT_ZN_1,BLDG_OCC_SCH,PERIMETER_BOT_ZN_1,207.34,11.2,11.2,5.382E-002,18.579,0.300,0.700,AutoCalculate,ACTIVITY_SCH,No,3.8200E-008,0,11,Zone Averaged,WORK_EFF_SCH,CLOTHING_SCH,AIR_VELO_SCH,Yes,No,No
 People Internal Gains, PERIMETER_BOT_ZN_4,BLDG_OCC_SCH,PERIMETER_BOT_ZN_4,131.25,7.1,7.1,5.382E-002,18.579,0.300,0.700,AutoCalculate,ACTIVITY_SCH,No,3.8200E-008,0,7,Zone Averaged,WORK_EFF_SCH,CLOTHING_SCH,AIR_VELO_SCH,Yes,No,No
 People Internal Gains, PERIMETER_MID_ZN_3,BLDG_OCC_SCH,PERIMETER_MID_ZN_3,207.34,11.2,11.2,5.382E-002,18.579,0.300,0.700,AutoCalculate,ACTIVITY_SCH,No,3.8200E-008,0,11,Zone Averaged,WORK_EFF_SCH,CLOTHING_SCH,AIR_VELO_SCH,Yes,No,No
 People Internal Gains, PERIMETER_MID_ZN_2,BLDG_OCC_SCH,PERIMETER_MID_ZN_2,131.26,7.1,7.1,5.382E-002,18.579,0.300,0.700,AutoCalculate,ACTIVITY_SCH,No,3.8200E-008,0,7,Zone Averaged,WORK_EFF_SCH,CLOTHING_SCH,AIR_VELO_SCH,Yes,No,No
 People Internal Gains, PERIMETER_MID_ZN_1,BLDG_OCC_SCH,PERIMETER_MID_ZN_1,207.34,11.2,11.2,5.382E-002,18.579,0.300,0.700,AutoCalculate,ACTIVITY_SCH,No,3.8200E-008,0,11,Zone Averaged,WORK_EFF_SCH,CLOTHING_SCH,AIR_VELO_SCH,Yes,No,No
 People Internal Gains, PERIMETER_MID_ZN_4,BLDG_OCC_SCH,PERIMETER_MID_ZN_4,131.25,7.1,7.1,5.382E-002,18.579,0.300,0.700,AutoCalculate,ACTIVITY_SCH,No,3.8200E-008,0,7,Zone Averaged,WORK_EFF_SCH,CLOTHING_SCH,AIR_VELO_SCH,Yes,No,No
! <Lights Internal Gains - Nominal>,Name,Schedule Name,Zone Name,Zone Floor Area {m2},# Zone Occupants,Lighting Level {W},Lights/Floor Area {W/m2},Lights per person {W/person},Fraction Return Air,Fraction Radiant,Fraction Short Wave,Fraction Convected,Fraction Replaceable,End-Use Category,Nominal Minimum Lighting Level {W},Nominal Maximum Lighting Level {W}
 Lights Internal Gains, CORE_BOTTOM_LIGHTS,BLDG_LIGHT_SCH,CORE_BOTTOM,983.54,52.9,8363.493,8.503,157.985,0.000,0.700,0.200,0.100,1.000,General Lights,0.000,8363.493
 Lights Internal Gains, CORE_MID_LIGHTS,BLDG_LIGHT_SCH,CORE_MID,983.54,52.9,8363.493,8.503,157.985,0.000,0.700,0.200,0.100,1.000,General Lights,0.000,8363.493
 Lights Internal Gains, CORE_TOP_LIGHTS,BLDG_LIGHT_SCH,CORE_TOP,983.54,52.9,8363.493,8.503,157.985,0.000,0.700,0.200,0.100,1.000,General Lights,0.000,8363.493
 Lights Internal Gains, PERIMETER_TOP_ZN_3_LIGHTS,BLDG_LIGHT_SCH,PERIMETER_TOP_ZN_3,207.34,11.2,1763.098,8.503,157.985,0.000,0.700,0.200,0.100,1.000,General Lights,0.000,1763.098
 Lights Internal Gains, PERIMETER_TOP_ZN_2_LIGHTS,BLDG_LIGHT_SCH,PERIMETER_TOP_ZN_2,131.26,7.1,1116.187,8.503,157.985,0.000,0.700,0.200,0.100,1.000,General Lights,0.000,1116.187
 Lights Internal Gains, PERIMETER_TOP_ZN_1_LIGHTS,BLDG_LIGHT_SCH,PERIMETER_TOP_ZN_1,207.34,11.2,1763.098,8.503,157.985,0.000,0.700,0.200,0.100,1.000,General Lights,0.000,1763.098
 Lights Internal Gains, PERIMETER_TOP_ZN_4_LIGHTS,BLDG_LIGHT_SCH,PERIMETER_TOP_ZN_4,131.25,7.1,1116.113,8.503,157.985,0.000,0.700,0.200,0.100,1.000,General Lights,0.000,1116.113
 Lights Internal Gains, PERIMETER_BOT_ZN_3_LIGHTS,BLDG_LIGHT_SCH,PERIMETER_BOT_ZN_3,207.34,11.2,1763.098,8.503,157.985,0.000,0.700,0.200,0.100,1.000,General Lights,0.000,1763.098
 Lights Internal Gains, PERIMETER_BOT_ZN_2_LIGHTS,BLDG_LIGHT_SCH,PERIMETER_BOT_ZN_2,131.26,7.1,1116.187,8.503,157.985,0.000,0.700,0.200,0.100,1.000,General Lights,0.000,1116.187
 Lights Internal Gains, PERIMETER_BOT_ZN_1_LIGHTS,BLDG_LIGHT_SCH,PERIMETER_BOT_ZN_1,207.34,11.2,1763.098,8.503,157.985,0.000,0.700,0.200,0.100,1.000,General Lights,0.000,1763.098
 Lights Internal Gains, PERIMETER_BOT_ZN_4_LIGHTS,BLDG_LIGHT_SCH,PERIMETER_BOT_ZN_4,131.25,7.1,1116.113,8.503,157.985,0.000,0.700,0.200,0.100,1.000,General Lights,0.000,1116.113
 Lights Internal Gains, PERIMETER_MID_ZN_3_LIGHTS,BLDG_LIGHT_SCH,PERIMETER_MID_ZN_3,207.34,11.2,1763.098,8.503,157.985,0.000,0.700,0.200,0.100,1.000,General Lights,0.000,1763.098
 Lights Internal Gains, PERIMETER_MID_ZN_2_LIGHTS,BLDG_LIGHT_SCH,PERIMETER_MID_ZN_2,131.26,7.1,1116.187,8.503,157.985,0.000,0.700,0.200,0.100,1.000,General Lights,0.000,1116.187
 Lights Internal Gains, PERIMETER_MID_ZN_1_LIGHTS,BLDG_LIGHT_SCH,PERIMETER_MID_ZN_1,207.34,11.2,1763.098,8.503,157.985,0.000,0.700,0.200,0.100,1.000,General Lights,0.000,1763.098
 Lights Internal Gains, PERIMETER_MID_ZN_4_LIGHTS,BLDG_LIGHT_SCH,PERIMETER_MID_ZN_4,131.25,7.1,1116.113,8.503,157.985,0.000,0.700,0.200,0.100,1.000,General Lights,0.000,1116.113
! <ElectricEquipment Internal Gains - Nominal>,Name,Schedule Name,Zone Name,Zone Floor Area {m2},# Zone Occupants,Equipment Level {W},Equipment/Floor Area {W/m2},Equipment per person {W/person},Fraction Latent,Fraction Radiant,Fraction Lost,Fraction Convected,End-Use SubCategory,Nominal Minimum Equipment Level {W},Nominal Maximum Equipment Level {W}
 ElectricEquipment Internal Gains, CORE_BOTTOM_MISCPLUG_EQUIP,BLDG_EQUIP_SCH,CORE_BOTTOM,983.54,52.9,7937.156,8.070,149.931,0.000,0.500,0.000,0.500,MiscPlug,0.000,7937.156
 ElectricEquipment Internal Gains, CORE_MID_MISCPLUG_EQUIP,BLDG_EQUIP_SCH,CORE_MID,983.54,52.9,7937.156,8.070,149.931,0.000,0.500,0.000,0.500,MiscPlug,0.000,7937.156
 ElectricEquipment Internal Gains, CORE_TOP_MISCPLUG_EQUIP,BLDG_EQUIP_SCH,CORE_TOP,983.54,52.9,7937.156,8.070,149.931,0.000,0.500,0.000,0.500,MiscPlug,0.000,7937.156
 ElectricEquipment Internal Gains, PERIMETER_TOP_ZN_3_MISCPLUG_EQUIP,BLDG_EQUIP_SCH,PERIMETER_TOP_ZN_3,207.34,11.2,1673.214,8.070,149.930,0.000,0.500,0.000,0.500,MiscPlug,0.000,1673.214
 ElectricEquipment Internal Gains, PERIMETER_TOP_ZN_2_MISCPLUG_EQUIP,BLDG_EQUIP_SCH,PERIMETER_TOP_ZN_2,131.26,7.1,1059.217,8.069,149.921,0.000,0.500,0.000,0.500,MiscPlug,0.000,1059.217
 ElectricEquipment Internal Gains, PERIMETER_TOP_ZN_1_MISCPLUG_EQUIP,BLDG_EQUIP_SCH,PERIMETER_TOP_ZN_1,207.34,11.2,1673.203,8.070,149.929,0.000,0.500,0.000,0.500,MiscPlug,0.000,1673.203
 ElectricEquipment Internal Gains, PERIMETER_TOP_ZN_4_MISCPLUG_EQUIP,BLDG_EQUIP_SCH,PERIMETER_TOP_ZN_4,131.25,7.1,1059.210,8.070,149.930,0.000,0.500,0.000,0.500,MiscPlug,0.000,1059.210
 ElectricEquipment Internal Gains, PERIMETER_BOT_ZN_3_MISCPLUG_EQUIP,BLDG_EQUIP_SCH,PERIMETER_BOT_ZN_3,207.34,11.2,1673.214,8.070,149.930,0.000,0.500,0.000,0.500,MiscPlug,0.000,1673.214
 ElectricEquipment Internal Gains, PERIMETER_BOT_ZN_2_MISCPLUG_EQUIP,BLDG_EQUIP_SCH,PERIMETER_BOT_ZN_2,131.26,7.1,1059.217,8.069,149.921,0.000,0.500,0.000,0.500,MiscPlug,0.000,1059.217
 ElectricEquipment Internal Gains, PERIMETER_BOT_ZN_1_MISCPLUG_EQUIP,BLDG_EQUIP_SCH,PERIMETER_BOT_ZN_1,207.34,11.2,1673.203,8.070,149.929,0.000,0.500,0.000,0.500,MiscPlug,0.000,1673.203
 ElectricEquipment Internal Gains, PERIMETER_BOT_ZN_4_MISCPLUG_EQUIP,BLDG_EQUIP_SCH,PERIMETER_BOT_ZN_4,131.25,7.1,1059.210,8.070,149.930,0.000,0.500,0.000,0.500,MiscPlug,0.000,1059.210
 ElectricEquipment Internal Gains, PERIMETER_MID_ZN_3_MISCPLUG_EQUIP,BLDG_EQUIP_SCH,PERIMETER_MID_ZN_3,207.34,11.2,1673.214,8.070,149.930,0.000,0.500,0.000,0.500,MiscPlug,0.000,1673.214
 ElectricEquipment Internal Gains, PERIMETER_MID_ZN_2_MISCPLUG_EQUIP,BLDG_EQUIP_SCH,PERIMETER_MID_ZN_2,131.26,7.1,1059.217,8.069,149.921,0.000,0.500,0.000,0.500,MiscPlug,0.000,1059.217
 ElectricEquipment Internal Gains, PERIMETER_MID_ZN_1_MISCPLUG_EQUIP,BLDG_EQUIP_SCH,PERIMETER_MID_ZN_1,207.34,11.2,1673.203,8.070,149.929,0.000,0.500,0.000,0.500,MiscPlug,0.000,1673.203
 ElectricEquipment Internal Gains, PERIMETER_MID_ZN_4_MISCPLUG_EQUIP,BLDG_EQUIP_SCH,PERIMETER_MID_ZN_4,131.25,7.1,1059.210,8.070,149.930,0.000,0.500,0.000,0.500,MiscPlug,0.000,1059.210
 ElectricEquipment Internal Gains, CORE_BOTTOM_ELEVATORS_EQUIP,BLDG_ELEVATORS,CORE_BOTTOM,983.54,52.9,32109.890,32.647,606.549,0.000,0.500,0.000,0.500,MiscPlug,0.000,22155.824
 ElectricEquipment Internal Gains, ELEVATORS_LIGHTS_FAN,ELEV_LIGHT_FAN_SCH_ADD_DF,CORE_BOTTOM,983.54,52.9,125.000,0.127,2.361,0.000,0.500,0.000,0.500,MiscPlug,0.000,86.250
! <Construction CTF>,Construction Name,Index,#Layers,#CTFs,Time Step {hours},ThermalConductance {w/m2-K},OuterThermalAbsorptance,InnerThermalAbsorptance,OuterSolarAbsorptance,InnerSolarAbsorptance,Roughness
! <Material CTF Summary>,Material Name,Thickness {m},Conductivity {w/m-K},Density {kg/m3},Specific Heat {J/kg-K},ThermalResistance {m2-K/w}
! <Material:Air>,Material Name,ThermalResistance {m2-K/w}
! <CTF>,Time,Outside,Cross,Inside,Flux (except final one)
 Construction CTF,SWINGING DOOR_CON,   1,   1,   1,   0.250,      2.101    ,   0.900,   0.900,   0.700,   0.700,MediumRough
 Material CTF Summary,OPAQUE DOOR PANEL_CON,  0.0000,         0.000,      0.000,        0.000,  0.4760    
 CTF,   1,       0.0000000    ,       0.0000000    ,       0.0000000    ,       0.0000000    
 CTF,   0,       2.1010000    ,       2.1010000    ,       2.1010000    
 Construction CTF,INTERIORFURNISHINGS,   2,   1,   7,   0.250,     0.8000    ,   0.900,   0.900,   0.700,   0.700,MediumSmooth
 Material CTF Summary,STD WOOD 6INCH,  0.1500,         0.120,    540.000,     1210.000,   1.250    
 CTF,   7,     -0.19879948E-01,      0.18371110E-08,     -0.19879948E-01,      0.25920384E-02
 CTF,   6,      0.37833182    ,      0.93111392E-06,      0.37833182    ,     -0.50805208E-01
 CTF,   5,      -2.8822885    ,      0.33090332E-04,      -2.8822885    ,      0.40100636    
 CTF,   4,       11.391948    ,      0.23980383E-03,       11.391948    ,      -1.6521297    
 CTF,   3,      -25.286828    ,      0.46344169E-03,      -25.286828    ,       3.8446603    
 CTF,   2,       31.657742    ,      0.23933549E-03,       31.657742    ,      -5.0707043    
 CTF,   1,      -20.807361    ,      0.25331892E-04,      -20.807361    ,       3.5241279    
 CTF,   0,       5.5693388    ,      0.18852057E-06,       5.5693388    
 Construction CTF,AIR_WALL,   3,   1,   1,   0.250,      4.809    ,   0.900,   0.900,   0.700,   0.700,Rough
 Material CTF Summary,AIR_WALL_MATERIAL,  0.0000,         0.000,      0.000,        0.000,  0.2079    
 CTF,   1,       0.0000000    ,       0.0000000    ,       0.0000000    ,       0.0000000    
 CTF,   0,       4.8088691    ,       4.8088691    ,       4.8088691    
 Construction CTF,DROPCEILING,   4,   1,   3,   0.250,      4.488    ,   0.900,   0.900,   0.700,   0.700,MediumSmooth
 Material CTF Summary,AC02 ACOUSTIC CEILING,  0.0127,         0.057,    288.000,     1339.000,  0.2228    
 CTF,   3,     -0.53260828E-14,      0.38590732E-14,     -0.53260829E-14,       0.0000000    
 CTF,   2,      0.29572608E-03,      0.17480917E-03,      0.29572608E-03,     -0.50670342E-13
 CTF,   1,      -1.7155691    ,       1.0037059    ,      -1.7155691    ,      0.66704272E-03
 CTF,   0,       6.2004685    ,       3.4813145    ,       6.2004685    
 Construction CTF,OPAQUEDOOR,   5,   1,   1,   0.250,      8.100    ,   0.900,   0.900,   0.700,   0.700,MediumRough
 Material CTF Summary,STD OPAQUE DOOR PANEL,  0.0000,         0.000,      0.000,        0.000,  0.1235    
 CTF,   1,       0.0000000    ,       0.0000000    ,       0.0000000    ,       0.0000000    
 CTF,   0,       8.1000000    ,       8.1000000    ,       8.1000000    
 Construction CTF,ATTICROOFDECK,   6,   2,   3,   0.250,      4.706    ,   0.900,   0.900,   0.700,   0.700,VeryRough
 Material CTF Summary,F12 ASPHALT SHINGLES,  0.0032,         0.040,   1120.000,     1260.000,  0.8000E-01
 Material CTF Summary,G02 16MM PLYWOOD,  0.0159,         0.120,    544.000,     1210.000,  0.1325    
 CTF,   3,     -0.23236667E-05,      0.61601182E-06,     -0.13850214E-05,      0.13112224E-14
 CTF,   2,      0.13224389    ,      0.45048937E-01,      0.12929957    ,     -0.21165641E-05
 CTF,   1,      -5.1102264    ,       2.2780782    ,      -6.1255630    ,      0.71935360E-01
 CTF,   0,       9.3453578    ,       2.0442452    ,       10.363638    
 Construction CTF,INT_WALL,   7,   2,   4,   0.250,      6.299    ,   0.900,   0.900,   0.700,   0.700,Smooth
 Material CTF Summary,G01 13MM GYPSUM BOARD,  0.0127,         0.160,    800.000,     1090.000,  0.7938E-01
 Material CTF Summary,G01 13MM GYPSUM BOARD,  0.0127,         0.160,    800.000,     1090.000,  0.7938E-01
 CTF,   4,      0.12042566E-13,      0.45929688E-14,      0.12042579E-13,       0.0000000    
 CTF,   3,     -0.90043060E-05,      0.30474453E-05,     -0.90043060E-05,      0.18391453E-13
 CTF,   2,      0.23735444    ,      0.83694685E-01,      0.23735444    ,     -0.65848504E-05
 CTF,   1,      -8.4013897    ,       3.1829864    ,      -8.4013897    ,      0.83534042E-01
 CTF,   0,       13.937100    ,       2.5063712    ,       13.937100    
 Construction CTF,EXT_SLAB_8IN_WITH_CARPET,   8,   2,   7,   0.250,      3.285    ,   0.900,   0.900,   0.700,   0.700,MediumRough
 Material CTF Summary,200MM NORMALWEIGHT CONCRETE FLOOR,  0.2032,         2.310,   2322.000,      832.000,  0.8797E-01
 Material CTF Summary,CP02 CARPET PAD,  0.0000,         0.000,      0.000,        0.000,  0.2165    
 CTF,   7,     -0.10378937E-14,     -0.57568845E-15,     -0.49053640E-10,     -0.25280578E-17
 CTF,   6,      0.22253093E-02,      0.74852569E-07,      0.11525024E-03,     -0.21216748E-04
 CTF,   5,     -0.16504329    ,      0.46682053E-04,     -0.84513039E-02,      0.16388344E-02
 CTF,   4,       3.7453048    ,      0.21966331E-02,      0.19659200    ,     -0.39849567E-01
 CTF,   3,      -30.717465    ,      0.18038764E-01,      -1.7434326    ,      0.36581047    
 CTF,   2,       97.127517    ,      0.30720456E-01,       6.2408452    ,      -1.3453403    
 CTF,   1,      -123.02143    ,      0.96741016E-02,      -9.0622796    ,       1.9992282    
 CTF,   0,       53.089772    ,      0.20065040E-03,       4.4374874    
 Construction CTF,EXT_SLAB_8IN,   9,   1,   5,   0.250,      11.37    ,   0.900,   0.900,   0.700,   0.700,MediumRough
 Material CTF Summary,200MM NORMALWEIGHT CONCRETE FLOOR,  0.2032,         2.310,   2322.000,      832.000,  0.8797E-01
 CTF,   5,     -0.30846184E-01,      0.31659116E-04,     -0.30846184E-01,      0.29409657E-03
 CTF,   4,       1.3530640    ,      0.72424564E-02,       1.3530640    ,     -0.13805018E-01
 CTF,   3,      -16.091059    ,      0.13837483    ,      -16.091059    ,      0.18345457    
 CTF,   2,       66.456176    ,      0.43128413    ,       66.456176    ,     -0.88173441    
 CTF,   1,      -103.96397    ,      0.22576402    ,      -103.96397    ,       1.6402638    
 CTF,   0,       53.089766    ,      0.10429728E-01,       53.089766    
 Construction CTF,EXT_SLAB_6IN_WITH_CARPET,  10,   2,   7,   0.250,      3.540    ,   0.900,   0.900,   0.700,   0.700,MediumRough
 Material CTF Summary,150MM NORMALWEIGHT CONCRETE FLOOR,  0.1524,         2.310,   2322.000,      832.000,  0.6597E-01
 Material CTF Summary,CP02 CARPET PAD,  0.0000,         0.000,      0.000,        0.000,  0.2165    
 CTF,   7,      0.14570936E-14,      0.10604354E-14,     -0.11870815E-13,       0.0000000    
 CTF,   6,      0.13972666E-05,      0.21237947E-08,      0.47144934E-07,     -0.52047953E-08
 CTF,   5,     -0.13075272E-02,      0.68105291E-05,     -0.36159008E-04,      0.52548394E-05
 CTF,   4,      0.25026404    ,      0.13578373E-02,      0.65552629E-02,     -0.11878745E-02
 CTF,   3,      -8.6681535    ,      0.33042472E-01,     -0.26974041    ,      0.54502287E-01
 CTF,   2,       59.193576    ,      0.12538836    ,       2.5181812    ,     -0.53498300    
 CTF,   1,      -112.13276    ,      0.72877773E-01,      -6.4416898    ,       1.4150227    
 CTF,   0,       61.594316    ,      0.32621019E-02,       4.4226639    
 Construction CTF,EXT_SLAB_6IN,  11,   1,   5,   0.250,      15.16    ,   0.900,   0.900,   0.700,   0.700,MediumRough
 Material CTF Summary,150MM NORMALWEIGHT CONCRETE FLOOR,  0.1524,         2.310,   2322.000,      832.000,  0.6597E-01
 CTF,   5,     -0.14145654E-03,      0.41251809E-05,     -0.14145654E-03,      0.52693849E-06
 CTF,   4,      0.56782248E-01,      0.37927617E-02,      0.56782248E-01,     -0.24986850E-03
 CTF,   3,      -3.2174914    ,      0.21939238    ,      -3.2174914    ,      0.18590692E-01
 CTF,   2,       33.339158    ,       1.5387190    ,       33.339158    ,     -0.27062541    
 CTF,   1,      -88.400408    ,       1.4917516    ,      -88.400408    ,       1.0298033    
 CTF,   0,       61.594347    ,      0.11858768    ,       61.594347    
 Construction CTF,INT_SLAB_FLOOR,  12,   2,   6,   0.250,      3.839    ,   0.900,   0.900,   0.700,   0.700,MediumRough
 Material CTF Summary,100MM NORMALWEIGHT CONCRETE FLOOR,  0.1016,         2.310,   2322.000,      832.000,  0.4398E-01
 Material CTF Summary,CP02 CARPET PAD,  0.0000,         0.000,      0.000,        0.000,  0.2165    
 CTF,   6,      0.12620589E-13,      0.23342927E-14,      0.34773710E-15,      0.44665978E-16
 CTF,   5,     -0.24159609E-07,      0.13931939E-08,     -0.39969524E-09,      0.71956923E-12
 CTF,   4,      0.96276627E-03,      0.27481775E-04,      0.50620123E-05,     -0.15578040E-06
 CTF,   3,     -0.86089205    ,      0.12594216E-01,     -0.51311376E-02,      0.80173640E-03
 CTF,   2,       28.790752    ,      0.27225761    ,      0.51152910    ,     -0.10404061    
 CTF,   1,      -97.558265    ,      0.49524356    ,      -4.0761999    ,      0.88415844    
 CTF,   0,       70.468563    ,      0.60998910E-01,       4.4109175    
 Construction CTF,INT_SLAB_CEILING,  13,   2,   6,   0.250,      3.839    ,   0.900,   0.900,   0.700,   0.700,VeryRough
 Material CTF Summary,CP02 CARPET PAD,  0.0000,         0.000,      0.000,        0.000,  0.2165    
 Material CTF Summary,100MM NORMALWEIGHT CONCRETE FLOOR,  0.1016,         2.310,   2322.000,      832.000,  0.4398E-01
 CTF,   6,      0.34773710E-15,      0.23342927E-14,      0.12620589E-13,      0.44665978E-16
 CTF,   5,     -0.39969524E-09,      0.13931939E-08,     -0.24159609E-07,      0.71956923E-12
 CTF,   4,      0.50620123E-05,      0.27481775E-04,      0.96276627E-03,     -0.15578040E-06
 CTF,   3,     -0.51311376E-02,      0.12594216E-01,     -0.86089205    ,      0.80173640E-03
 CTF,   2,      0.51152910    ,      0.27225761    ,       28.790752    ,     -0.10404061    
 CTF,   1,      -4.0761999    ,      0.49524356    ,      -97.558265    ,      0.88415844    
 CTF,   0,       4.4109175    ,      0.60998910E-01,       70.468563    
 Construction CTF,BASEMENT_WALL,  14,   1,   5,   0.250,      6.526    ,   0.900,   0.900,   0.700,   0.700,MediumRough
 Material CTF Summary,M10 200MM CONCRETE BLOCK BASEMENT WALL,  0.2032,         1.326,   1842.000,      912.000,  0.1532    
 CTF,   5,     -0.23472675    ,      0.23045216E-04,     -0.23472675    ,      0.46636651E-02
 CTF,   4,       4.3077969    ,      0.31200261E-02,       4.3077969    ,     -0.90140179E-01
 CTF,   3,      -26.553507    ,      0.37635583E-01,      -26.553507    ,      0.59727399    
 CTF,   2,       69.642744    ,      0.80420193E-01,       69.642744    ,      -1.7156027    
 CTF,   1,      -79.811178    ,      0.30715331E-01,      -79.811178    ,       2.1803626    
 CTF,   0,       32.801847    ,      0.10626837E-02,       32.801847    
 Construction CTF,INT_WOOD_FLOOR,  15,   3,   4,   0.250,      1.749    ,   0.900,   0.900,   0.700,   0.700,MediumSmooth
 Material CTF Summary,AC02 ACOUSTIC CEILING,  0.0127,         0.057,    288.000,     1339.000,  0.2228    
 Material CTF Summary,G02 16MM PLYWOOD,  0.0159,         0.120,    544.000,     1210.000,  0.1325    
 Material CTF Summary,CP02 CARPET PAD,  0.0000,         0.000,      0.000,        0.000,  0.2165    
 CTF,   4,      0.66601652E-07,      0.28097211E-08,      0.14718383E-08,     -0.19373854E-15
 CTF,   3,     -0.38656689E-02,      0.29271135E-03,     -0.10805674E-03,      0.15502311E-06
 CTF,   2,       1.0141829    ,      0.91399271E-01,      0.72569517E-01,     -0.41188403E-02
 CTF,   1,      -5.9131617    ,      0.55833841    ,      -2.6023847    ,      0.54496744    
 CTF,   0,       5.7058553    ,      0.15298065    ,       3.3329341    
 Construction CTF,EXT_SOFFIT_FLOOR,  16,   1,   3,   0.250,      7.547    ,   0.900,   0.900,   0.700,   0.700,Smooth
 Material CTF Summary,G02 16MM PLYWOOD,  0.0159,         0.120,    544.000,     1210.000,  0.1325    
 CTF,   3,     -0.77570848E-11,      0.56204813E-11,     -0.77570848E-11,      0.23734918E-25
 CTF,   2,      0.30028653E-02,      0.17750010E-02,      0.30028653E-02,     -0.34533438E-10
 CTF,   1,      -3.6792752    ,       2.1192049    ,      -3.6792752    ,      0.31695107E-02
 CTF,   0,       11.199521    ,       5.4022691    ,       11.199521    
 Construction CTF,NONRES_ROOF,  17,   3,   3,   0.250,     0.1864    ,   0.900,   0.900,   0.700,   0.700,Rough
 Material CTF Summary,F13 BUILT-UP ROOFING,  0.0095,         0.160,   1120.000,     1460.000,  0.5937E-01
 Material CTF Summary,NONRES_ROOF_INSULATION,  0.0000,         0.000,      0.000,        0.000,   5.307    
 Material CTF Summary,F08 METAL SURFACE,  0.0008,        45.280,   7824.000,      500.000,  0.1767E-04
 CTF,   3,     -0.36001017E-09,      0.48474703E-12,     -0.22061971E-08,      0.42112828E-18
 CTF,   2,      0.23532522    ,      0.34379438E-03,      0.31919894    ,     -0.63445960E-09
 CTF,   1,      -15.986175    ,      0.70694107E-01,      -3.8142812    ,      0.91794137E-01
 CTF,   0,       15.920099    ,      0.98211582E-01,       3.6643317    
 Construction CTF,RES_ROOF,  18,   3,   3,   0.250,      11.19    ,   0.900,   0.900,   0.700,   0.700,Rough
 Material CTF Summary,F13 BUILT-UP ROOFING,  0.0095,         0.160,   1120.000,     1460.000,  0.5937E-01
 Material CTF Summary,RES_ROOF_INSULATION,  0.0000,         0.000,      0.000,        0.000,  0.2994E-01
 Material CTF Summary,F08 METAL SURFACE,  0.0008,        45.280,   7824.000,      500.000,  0.1767E-04
 CTF,   3,     -0.10896890E-11,     -0.18184033E-11,     -0.58923613E-11,     -0.17067882E-15
 CTF,   2,      0.14231738E-01,      0.30024435E-02,      0.25812879E-01,     -0.22901810E-11
 CTF,   1,      -8.1141712    ,       3.1952298    ,      -6.1582554    ,      0.68942308E-02
 CTF,   0,       19.217036    ,       7.9188639    ,       17.249539    
 Construction CTF,SEMIHEATED_ROOF,  19,   3,   3,   0.250,      11.19    ,   0.900,   0.900,   0.700,   0.700,Rough
 Material CTF Summary,F13 BUILT-UP ROOFING,  0.0095,         0.160,   1120.000,     1460.000,  0.5937E-01
 Material CTF Summary,SEMIHEATED_ROOF_INSULATION,  0.0000,         0.000,      0.000,        0.000,  0.2994E-01
 Material CTF Summary,F08 METAL SURFACE,  0.0008,        45.280,   7824.000,      500.000,  0.1767E-04
 CTF,   3,     -0.10896890E-11,     -0.18184033E-11,     -0.58923613E-11,     -0.17067882E-15
 CTF,   2,      0.14231738E-01,      0.30024435E-02,      0.25812879E-01,     -0.22901810E-11
 CTF,   1,      -8.1141712    ,       3.1952298    ,      -6.1582554    ,      0.68942308E-02
 CTF,   0,       19.217036    ,       7.9188639    ,       17.249539    
 Construction CTF,NONRES_EXT_WALL,  20,   4,   6,   0.250,     0.3276    ,   0.900,   0.900,   0.700,   0.700,Smooth
 Material CTF Summary,F07 25MM STUCCO,  0.0254,         0.720,   1856.000,      840.000,  0.3528E-01
 Material CTF Summary,G01 16MM GYPSUM BOARD,  0.0159,         0.160,    800.000,     1090.000,  0.9938E-01
 Material CTF Summary,NONRES_EXTERIOR_WALL_INSULATION,  0.0000,         0.000,      0.000,        0.000,   2.818    
 Material CTF Summary,G01 16MM GYPSUM BOARD,  0.0159,         0.160,    800.000,     1090.000,  0.9938E-01
 CTF,   6,      0.17058010E-11,      0.52762647E-14,      0.32155473E-12,      0.15334590E-15
 CTF,   5,     -0.63480604E-06,      0.39207494E-08,     -0.38531877E-06,      0.57196598E-12
 CTF,   4,      0.37349151E-01,      0.48094847E-04,      0.12780006E-01,     -0.18354865E-06
 CTF,   3,      -2.1255408    ,      0.68279691E-02,     -0.61430978    ,      0.55989707E-02
 CTF,   2,       19.131456    ,      0.60087495E-01,       7.8966043    ,     -0.13612288    
 CTF,   1,      -54.591175    ,      0.56505533E-01,      -19.914583    ,      0.74470269    
 CTF,   0,       37.674315    ,      0.29339959E-02,       12.745912    
 Construction CTF,RES_EXT_WALL,  21,   4,   5,   0.250,      3.788    ,   0.900,   0.900,   0.700,   0.700,Smooth
 Material CTF Summary,F07 25MM STUCCO,  0.0254,         0.720,   1856.000,      840.000,  0.3528E-01
 Material CTF Summary,G01 16MM GYPSUM BOARD,  0.0159,         0.160,    800.000,     1090.000,  0.9938E-01
 Material CTF Summary,RES_EXTERIOR_WALL_INSULATION,  0.0000,         0.000,      0.000,        0.000,  0.2994E-01
 Material CTF Summary,G01 16MM GYPSUM BOARD,  0.0159,         0.160,    800.000,     1090.000,  0.9938E-01
 CTF,   5,     -0.16391662E-07,      0.29680631E-08,     -0.77526447E-08,      0.32101821E-14
 CTF,   4,      0.16923870E-02,      0.10373552E-03,      0.50949437E-03,     -0.50831322E-08
 CTF,   3,     -0.38003731    ,      0.41607215E-01,     -0.15402566    ,      0.26884287E-03
 CTF,   2,       10.008283    ,      0.75401733    ,       3.6247627    ,     -0.42256846E-01
 CTF,   1,      -45.278331    ,       1.1446342    ,      -14.953426    ,      0.50576653    
 CTF,   0,       37.679792    ,      0.91037226E-01,       13.513579    
 Construction CTF,SEMIHEATED_EXT_WALL,  22,   4,   5,   0.250,      3.788    ,   0.900,   0.900,   0.700,   0.700,Smooth
 Material CTF Summary,F07 25MM STUCCO,  0.0254,         0.720,   1856.000,      840.000,  0.3528E-01
 Material CTF Summary,G01 16MM GYPSUM BOARD,  0.0159,         0.160,    800.000,     1090.000,  0.9938E-01
 Material CTF Summary,SEMIHEATED_EXTERIOR_WALL_INSULATION,  0.0000,         0.000,      0.000,        0.000,  0.2994E-01
 Material CTF Summary,G01 16MM GYPSUM BOARD,  0.0159,         0.160,    800.000,     1090.000,  0.9938E-01
 CTF,   5,     -0.16391662E-07,      0.29680631E-08,     -0.77526447E-08,      0.32101821E-14
 CTF,   4,      0.16923870E-02,      0.10373552E-03,      0.50949437E-03,     -0.50831322E-08
 CTF,   3,     -0.38003731    ,      0.41607215E-01,     -0.15402566    ,      0.26884287E-03
 CTF,   2,       10.008283    ,      0.75401733    ,       3.6247627    ,     -0.42256846E-01
 CTF,   1,      -45.278331    ,       1.1446342    ,      -14.953426    ,      0.50576653    
 CTF,   0,       37.679792    ,      0.91037226E-01,       13.513579    
 Construction CTF,NONRES_FLOOR,  23,   3,   6,   0.250,      3.444    ,   0.900,   0.900,   0.700,   0.700,MediumSmooth
 Material CTF Summary,NONRES_FLOOR_INSULATION,  0.0000,         0.000,      0.000,        0.000,  0.2994E-01
 Material CTF Summary,100MM NORMALWEIGHT CONCRETE FLOOR,  0.1016,         2.310,   2322.000,      832.000,  0.4398E-01
 Material CTF Summary,CP02 CARPET PAD,  0.0000,         0.000,      0.000,        0.000,  0.2165    
 CTF,   6,      0.15854738E-11,      0.43566954E-13,      0.22110048E-13,     -0.24327506E-16
 CTF,   5,     -0.27946578E-06,      0.91342603E-08,     -0.46950639E-08,      0.15306274E-10
 CTF,   4,      0.14313558E-02,      0.55756016E-04,      0.32699080E-04,     -0.15789231E-05
 CTF,   3,     -0.35671060    ,      0.10734877E-01,     -0.23300490E-01,      0.40463397E-02
 CTF,   2,       10.047206    ,      0.12650837    ,       1.2245259    ,     -0.25525261    
 CTF,   1,      -34.068504    ,      0.14850754    ,      -5.3147359    ,       1.1648149    
 CTF,   0,       24.674055    ,      0.11700357E-01,       4.4109682    
 Construction CTF,RES_FLOOR,  24,   3,   6,   0.250,      3.444    ,   0.900,   0.900,   0.700,   0.700,MediumSmooth
 Material CTF Summary,RES_FLOOR_INSULATION,  0.0000,         0.000,      0.000,        0.000,  0.2994E-01
 Material CTF Summary,100MM NORMALWEIGHT CONCRETE FLOOR,  0.1016,         2.310,   2322.000,      832.000,  0.4398E-01
 Material CTF Summary,CP02 CARPET PAD,  0.0000,         0.000,      0.000,        0.000,  0.2165    
 CTF,   6,      0.15854738E-11,      0.43566954E-13,      0.22110048E-13,     -0.24327506E-16
 CTF,   5,     -0.27946578E-06,      0.91342603E-08,     -0.46950639E-08,      0.15306274E-10
 CTF,   4,      0.14313558E-02,      0.55756016E-04,      0.32699080E-04,     -0.15789231E-05
 CTF,   3,     -0.35671060    ,      0.10734877E-01,     -0.23300490E-01,      0.40463397E-02
 CTF,   2,       10.047206    ,      0.12650837    ,       1.2245259    ,     -0.25525261    
 CTF,   1,      -34.068504    ,      0.14850754    ,      -5.3147359    ,       1.1648149    
 CTF,   0,       24.674055    ,      0.11700357E-01,       4.4109682    
 Construction CTF,SEMIHEATED_FLOOR,  25,   3,   6,   0.250,      3.444    ,   0.900,   0.900,   0.700,   0.700,MediumSmooth
 Material CTF Summary,SEMIHEATED_FLOOR_INSULATION,  0.0000,         0.000,      0.000,        0.000,  0.2994E-01
 Material CTF Summary,100MM NORMALWEIGHT CONCRETE FLOOR,  0.1016,         2.310,   2322.000,      832.000,  0.4398E-01
 Material CTF Summary,CP02 CARPET PAD,  0.0000,         0.000,      0.000,        0.000,  0.2165    
 CTF,   6,      0.15854738E-11,      0.43566954E-13,      0.22110048E-13,     -0.24327506E-16
 CTF,   5,     -0.27946578E-06,      0.91342603E-08,     -0.46950639E-08,      0.15306274E-10
 CTF,   4,      0.14313558E-02,      0.55756016E-04,      0.32699080E-04,     -0.15789231E-05
 CTF,   3,     -0.35671060    ,      0.10734877E-01,     -0.23300490E-01,      0.40463397E-02
 CTF,   2,       10.047206    ,      0.12650837    ,       1.2245259    ,     -0.25525261    
 CTF,   1,      -34.068504    ,      0.14850754    ,      -5.3147359    ,       1.1648149    
 CTF,   0,       24.674055    ,      0.11700357E-01,       4.4109682    
 Construction CTF,NONRES_FLOOR_CEILING,  26,   3,   6,   0.250,      3.444    ,   0.900,   0.900,   0.700,   0.700,VeryRough
 Material CTF Summary,CP02 CARPET PAD,  0.0000,         0.000,      0.000,        0.000,  0.2165    
 Material CTF Summary,100MM NORMALWEIGHT CONCRETE FLOOR,  0.1016,         2.310,   2322.000,      832.000,  0.4398E-01
 Material CTF Summary,NONRES_FLOOR_INSULATION,  0.0000,         0.000,      0.000,        0.000,  0.2994E-01
 CTF,   6,      0.22110048E-13,      0.43566954E-13,      0.15854738E-11,     -0.24327506E-16
 CTF,   5,     -0.46950639E-08,      0.91342603E-08,     -0.27946578E-06,      0.15306274E-10
 CTF,   4,      0.32699080E-04,      0.55756016E-04,      0.14313558E-02,     -0.15789231E-05
 CTF,   3,     -0.23300490E-01,      0.10734877E-01,     -0.35671060    ,      0.40463397E-02
 CTF,   2,       1.2245259    ,      0.12650837    ,       10.047206    ,     -0.25525261    
 CTF,   1,      -5.3147359    ,      0.14850754    ,      -34.068504    ,       1.1648149    
 CTF,   0,       4.4109682    ,      0.11700357E-01,       24.674055    
 Construction CTF,RES_FLOOR_CEILING,  27,   3,   6,   0.250,      3.444    ,   0.900,   0.900,   0.700,   0.700,VeryRough
 Material CTF Summary,CP02 CARPET PAD,  0.0000,         0.000,      0.000,        0.000,  0.2165    
 Material CTF Summary,100MM NORMALWEIGHT CONCRETE FLOOR,  0.1016,         2.310,   2322.000,      832.000,  0.4398E-01
 Material CTF Summary,RES_FLOOR_INSULATION,  0.0000,         0.000,      0.000,        0.000,  0.2994E-01
 CTF,   6,      0.22110048E-13,      0.43566954E-13,      0.15854738E-11,     -0.24327506E-16
 CTF,   5,     -0.46950639E-08,      0.91342603E-08,     -0.27946578E-06,      0.15306274E-10
 CTF,   4,      0.32699080E-04,      0.55756016E-04,      0.14313558E-02,     -0.15789231E-05
 CTF,   3,     -0.23300490E-01,      0.10734877E-01,     -0.35671060    ,      0.40463397E-02
 CTF,   2,       1.2245259    ,      0.12650837    ,       10.047206    ,     -0.25525261    
 CTF,   1,      -5.3147359    ,      0.14850754    ,      -34.068504    ,       1.1648149    
 CTF,   0,       4.4109682    ,      0.11700357E-01,       24.674055    
 Construction CTF,SEMIHEATED_FLOOR_CEILING,  28,   3,   6,   0.250,      3.444    ,   0.900,   0.900,   0.700,   0.700,VeryRough
 Material CTF Summary,CP02 CARPET PAD,  0.0000,         0.000,      0.000,        0.000,  0.2165    
 Material CTF Summary,100MM NORMALWEIGHT CONCRETE FLOOR,  0.1016,         2.310,   2322.000,      832.000,  0.4398E-01
 Material CTF Summary,SEMIHEATED_FLOOR_INSULATION,  0.0000,         0.000,      0.000,        0.000,  0.2994E-01
 CTF,   6,      0.22110048E-13,      0.43566954E-13,      0.15854738E-11,     -0.24327506E-16
 CTF,   5,     -0.46950639E-08,      0.91342603E-08,     -0.27946578E-06,      0.15306274E-10
 CTF,   4,      0.32699080E-04,      0.55756016E-04,      0.14313558E-02,     -0.15789231E-05
 CTF,   3,     -0.23300490E-01,      0.10734877E-01,     -0.35671060    ,      0.40463397E-02
 CTF,   2,       1.2245259    ,      0.12650837    ,       10.047206    ,     -0.25525261    
 CTF,   1,      -5.3147359    ,      0.14850754    ,      -34.068504    ,       1.1648149    
 CTF,   0,       4.4109682    ,      0.11700357E-01,       24.674055    
! <WindowConstruction>,Construction Name,Index,#Layers,Roughness,Conductance {W/m2-K},SHGC,Solar Transmittance at Normal Incidence,Visible Transmittance at Normal Incidence
! <WindowMaterial:Glazing>, Material Name, Optical Data Type, Spectral Data Set Name, Thickness {m}, Solar Transmittance,Front Solar Reflectance, Back Solar Reflectance, Visible Transmittance, Front Visible Reflectance,Back Visible Reflectance,Infrared Transmittance, Front Thermal Emissivity, Back Thermal Emissivity,Conductivity {W/m-K},Dirt Factor,Solar Diffusing
! <WindowMaterial:Gas>,Material Name,GasType,Thickness {m}
 WindowConstruction,WINDOW_U_1.22_SHGC_0.61,29,1,VerySmooth,5.778,0.623,0.487,0.749
 WindowMaterial:Glazing,GREEN 6MM,SpectralAverage,,6.00000E-003,0.48700,5.60000E-002,5.60000E-002,0.74900,7.00000E-002,7.00000E-002,0.00000,0.84000,0.84000,0.90000,1.00000,No
 WindowConstruction,WINDOW_U_1.22_SHGC_0.39,30,1,VerySmooth,5.067,0.400,0.241,0.301
 WindowMaterial:Glazing,REF B CLEAR HI 6MM,SpectralAverage,,6.00000E-003,0.24000,0.16000,0.32000,0.30000,0.16000,0.29000,0.00000,0.84000,0.60000,0.90000,1.00000,No
 WindowConstruction,WINDOW_U_1.22_SHGC_0.34,31,1,VerySmooth,4.913,0.365,0.201,0.221
 WindowMaterial:Glazing,REF C CLEAR HI 6MM,SpectralAverage,,6.00000E-003,0.20000,0.16000,0.39000,0.22000,0.17000,0.35000,0.00000,0.84000,0.55000,0.90000,1.00000,No
 WindowConstruction,WINDOW_U_1.22_SHGC_0.25,32,1,VerySmooth,5.778,0.306,9.905E-002,0.155
 WindowMaterial:Glazing,ECREF-1 COLORED 6MM,SpectralAverage,,6.00000E-003,9.90000E-002,0.21900,0.21900,0.15500,7.30000E-002,7.30000E-002,0.00000,0.84000,0.84000,0.90000,1.00000,No
 WindowConstruction,WINDOW_U_0.72_SHGC_0.25,33,1,VerySmooth,4.600,0.293,0.100,0.130
 WindowMaterial:Glazing,REF B TINT MID 6MM,SpectralAverage,,6.00000E-003,0.10000,0.11000,0.41000,0.13000,0.10000,0.32000,0.00000,0.84000,0.45000,0.90000,1.00000,No
 WindowConstruction,WINDOW_U_0.62_SHGC_0.39,34,3,VerySmooth,3.045,0.428,0.343,0.308
 WindowMaterial:Glazing,REF D CLEAR 6MM,SpectralAverage,,6.00000E-003,0.42900,0.30800,0.37900,0.33400,0.45300,0.50500,0.00000,0.84000,0.82000,0.90000,1.00000,No
 WindowMaterial:Gas,AIR 6MM,Air,6.300E-003
 WindowMaterial:Glazing,CLEAR 6MM,SpectralAverage,,6.00000E-003,0.77500,7.10000E-002,7.10000E-002,0.88100,8.00000E-002,8.00000E-002,0.00000,0.84000,0.84000,0.90000,1.00000,No
 WindowConstruction,WINDOW_U_0.57_SHGC_0.39,35,3,VerySmooth,3.045,0.428,0.343,0.308
 WindowMaterial:Glazing,REF D CLEAR 6MM,SpectralAverage,,6.00000E-003,0.42900,0.30800,0.37900,0.33400,0.45300,0.50500,0.00000,0.84000,0.82000,0.90000,1.00000,No
 WindowMaterial:Gas,AIR 6MM,Air,6.300E-003
 WindowMaterial:Glazing,CLEAR 6MM,SpectralAverage,,6.00000E-003,0.77500,7.10000E-002,7.10000E-002,0.88100,8.00000E-002,8.00000E-002,0.00000,0.84000,0.84000,0.90000,1.00000,No
 WindowConstruction,WINDOW_U_0.65_SHGC_0.25,36,3,VerySmooth,2.848,0.287,0.160,0.200
 WindowMaterial:Glazing,REF C CLEAR HI 6MM,SpectralAverage,,6.00000E-003,0.20000,0.16000,0.39000,0.22000,0.17000,0.35000,0.00000,0.84000,0.55000,0.90000,1.00000,No
 WindowMaterial:Gas,AIR 6MM,Air,6.300E-003
 WindowMaterial:Glazing,CLEAR 6MM,SpectralAverage,,6.00000E-003,0.77500,7.10000E-002,7.10000E-002,0.88100,8.00000E-002,8.00000E-002,0.00000,0.84000,0.84000,0.90000,1.00000,No
 WindowConstruction,WINDOW_U_0.62_SHGC_0.25,37,3,VerySmooth,2.848,0.287,0.160,0.200
 WindowMaterial:Glazing,REF C CLEAR HI 6MM,SpectralAverage,,6.00000E-003,0.20000,0.16000,0.39000,0.22000,0.17000,0.35000,0.00000,0.84000,0.55000,0.90000,1.00000,No
 WindowMaterial:Gas,AIR 6MM,Air,6.300E-003
 WindowMaterial:Glazing,CLEAR 6MM,SpectralAverage,,6.00000E-003,0.77500,7.10000E-002,7.10000E-002,0.88100,8.00000E-002,8.00000E-002,0.00000,0.84000,0.84000,0.90000,1.00000,No
 WindowConstruction,WINDOW_U_0.57_SHGC_0.25,38,3,VerySmooth,2.848,0.287,0.160,0.200
 WindowMaterial:Glazing,REF C CLEAR HI 6MM,SpectralAverage,,6.00000E-003,0.20000,0.16000,0.39000,0.22000,0.17000,0.35000,0.00000,0.84000,0.55000,0.90000,1.00000,No
 WindowMaterial:Gas,AIR 6MM,Air,6.300E-003
 WindowMaterial:Glazing,CLEAR 6MM,SpectralAverage,,6.00000E-003,0.77500,7.10000E-002,7.10000E-002,0.88100,8.00000E-002,8.00000E-002,0.00000,0.84000,0.84000,0.90000,1.00000,No
 WindowConstruction,WINDOW_U_0.62_SHGC_0.49,39,3,VerySmooth,3.058,0.502,0.373,0.505
 WindowMaterial:Glazing,BLUE 6MM,SpectralAverage,,6.00000E-003,0.48000,5.00000E-002,5.00000E-002,0.57000,6.00000E-002,6.00000E-002,0.00000,0.84000,0.84000,0.90000,1.00000,No
 WindowMaterial:Gas,AIR 6MM,Air,6.300E-003
 WindowMaterial:Glazing,CLEAR 6MM,SpectralAverage,,6.00000E-003,0.77500,7.10000E-002,7.10000E-002,0.88100,8.00000E-002,8.00000E-002,0.00000,0.84000,0.84000,0.90000,1.00000,No
 WindowConstruction,WINDOW_U_0.57_SHGC_0.49,40,3,VerySmooth,3.058,0.502,0.373,0.505
 WindowMaterial:Glazing,BLUE 6MM,SpectralAverage,,6.00000E-003,0.48000,5.00000E-002,5.00000E-002,0.57000,6.00000E-002,6.00000E-002,0.00000,0.84000,0.84000,0.90000,1.00000,No
 WindowMaterial:Gas,AIR 6MM,Air,6.300E-003
 WindowMaterial:Glazing,CLEAR 6MM,SpectralAverage,,6.00000E-003,0.77500,7.10000E-002,7.10000E-002,0.88100,8.00000E-002,8.00000E-002,0.00000,0.84000,0.84000,0.90000,1.00000,No
 WindowConstruction,WINDOW_U_0.52_SHGC_0.40,41,3,VerySmooth,2.653,0.426,0.343,0.308
 WindowMaterial:Glazing,REF D CLEAR 6MM,SpectralAverage,,6.00000E-003,0.42900,0.30800,0.37900,0.33400,0.45300,0.50500,0.00000,0.84000,0.82000,0.90000,1.00000,No
 WindowMaterial:Gas,AIR 13MM,Air,1.270E-002
 WindowMaterial:Glazing,CLEAR 6MM,SpectralAverage,,6.00000E-003,0.77500,7.10000E-002,7.10000E-002,0.88100,8.00000E-002,8.00000E-002,0.00000,0.84000,0.84000,0.90000,1.00000,No
 WindowConstruction,WINDOW_U_0.48_SHGC_0.40,42,3,VerySmooth,2.653,0.426,0.343,0.308
 WindowMaterial:Glazing,REF D CLEAR 6MM,SpectralAverage,,6.00000E-003,0.42900,0.30800,0.37900,0.33400,0.45300,0.50500,0.00000,0.84000,0.82000,0.90000,1.00000,No
 WindowMaterial:Gas,AIR 13MM,Air,1.270E-002
 WindowMaterial:Glazing,CLEAR 6MM,SpectralAverage,,6.00000E-003,0.77500,7.10000E-002,7.10000E-002,0.88100,8.00000E-002,8.00000E-002,0.00000,0.84000,0.84000,0.90000,1.00000,No
 WindowConstruction,WINDOW_U_0.42_SHGC_0.45,43,3,VerySmooth,2.493,0.426,0.343,0.308
 WindowMaterial:Glazing,REF D CLEAR 6MM,SpectralAverage,,6.00000E-003,0.42900,0.30800,0.37900,0.33400,0.45300,0.50500,0.00000,0.84000,0.82000,0.90000,1.00000,No
 WindowMaterial:Gas,ARGON 13MM,Argon,1.270E-002
 WindowMaterial:Glazing,CLEAR 6MM,SpectralAverage,,6.00000E-003,0.77500,7.10000E-002,7.10000E-002,0.88100,8.00000E-002,8.00000E-002,0.00000,0.84000,0.84000,0.90000,1.00000,No
 WindowConstruction,WINDOW_U_0.46_SHGC_0.45,44,3,VerySmooth,2.670,0.479,0.354,0.381
 WindowMaterial:Glazing,GREY 6MM,SpectralAverage,,6.00000E-003,0.45500,5.30000E-002,5.30000E-002,0.43100,5.20000E-002,5.20000E-002,0.00000,0.84000,0.84000,0.90000,1.00000,No
 WindowMaterial:Gas,AIR 13MM,Air,1.270E-002
 WindowMaterial:Glazing,CLEAR 6MM,SpectralAverage,,6.00000E-003,0.77500,7.10000E-002,7.10000E-002,0.88100,8.00000E-002,8.00000E-002,0.00000,0.84000,0.84000,0.90000,1.00000,No
 WindowConstruction,WINDOW_U_0.42_SHGC_0.40,45,3,VerySmooth,2.371,0.397,0.284,0.444
 WindowMaterial:Glazing,LOE TINT 6MM,SpectralAverage,,6.00000E-003,0.36000,9.30000E-002,0.20000,0.50000,3.50000E-002,5.40000E-002,0.00000,0.84000,0.10000,0.90000,1.00000,No
 WindowMaterial:Gas,AIR 6MM,Air,6.300E-003
 WindowMaterial:Glazing,CLEAR 6MM,SpectralAverage,,6.00000E-003,0.77500,7.10000E-002,7.10000E-002,0.88100,8.00000E-002,8.00000E-002,0.00000,0.84000,0.84000,0.90000,1.00000,No
 WindowConstruction,WINDOW_U_0.43_SHGC_0.26,46,3,VerySmooth,2.447,0.305,0.191,0.271
 WindowMaterial:Glazing,REF B CLEAR HI 6MM,SpectralAverage,,6.00000E-003,0.24000,0.16000,0.32000,0.30000,0.16000,0.29000,0.00000,0.84000,0.60000,0.90000,1.00000,No
 WindowMaterial:Gas,AIR 13MM,Air,1.270E-002
 WindowMaterial:Glazing,CLEAR 6MM,SpectralAverage,,6.00000E-003,0.77500,7.10000E-002,7.10000E-002,0.88100,8.00000E-002,8.00000E-002,0.00000,0.84000,0.84000,0.90000,1.00000,No
 WindowConstruction,WINDOW_U_0.44_SHGC_0.26,47,3,VerySmooth,2.447,0.305,0.191,0.271
 WindowMaterial:Glazing,REF B CLEAR HI 6MM,SpectralAverage,,6.00000E-003,0.24000,0.16000,0.32000,0.30000,0.16000,0.29000,0.00000,0.84000,0.60000,0.90000,1.00000,No
 WindowMaterial:Gas,AIR 13MM,Air,1.270E-002
 WindowMaterial:Glazing,CLEAR 6MM,SpectralAverage,,6.00000E-003,0.77500,7.10000E-002,7.10000E-002,0.88100,8.00000E-002,8.00000E-002,0.00000,0.84000,0.84000,0.90000,1.00000,No
 WindowConstruction,WINDOW_U_0.42_SHGC_0.35,48,3,VerySmooth,2.371,0.397,0.284,0.444
 WindowMaterial:Glazing,LOE TINT 6MM,SpectralAverage,,6.00000E-003,0.36000,9.30000E-002,0.20000,0.50000,3.50000E-002,5.40000E-002,0.00000,0.84000,0.10000,0.90000,1.00000,No
 WindowMaterial:Gas,AIR 6MM,Air,6.300E-003
 WindowMaterial:Glazing,CLEAR 6MM,SpectralAverage,,6.00000E-003,0.77500,7.10000E-002,7.10000E-002,0.88100,8.00000E-002,8.00000E-002,0.00000,0.84000,0.84000,0.90000,1.00000,No
 WindowConstruction,WINDOW_U_0.33_SHGC_0.40,49,3,VerySmooth,1.761,0.380,0.284,0.444
 WindowMaterial:Glazing,LOE TINT 6MM,SpectralAverage,,6.00000E-003,0.36000,9.30000E-002,0.20000,0.50000,3.50000E-002,5.40000E-002,0.00000,0.84000,0.10000,0.90000,1.00000,No
 WindowMaterial:Gas,AIR 13MM,Air,1.270E-002
 WindowMaterial:Glazing,CLEAR 6MM,SpectralAverage,,6.00000E-003,0.77500,7.10000E-002,7.10000E-002,0.88100,8.00000E-002,8.00000E-002,0.00000,0.84000,0.84000,0.90000,1.00000,No
 WindowConstruction,WINDOW_U_0.34_SHGC_0.40,50,3,VerySmooth,1.761,0.380,0.284,0.444
 WindowMaterial:Glazing,LOE TINT 6MM,SpectralAverage,,6.00000E-003,0.36000,9.30000E-002,0.20000,0.50000,3.50000E-002,5.40000E-002,0.00000,0.84000,0.10000,0.90000,1.00000,No
 WindowMaterial:Gas,AIR 13MM,Air,1.270E-002
 WindowMaterial:Glazing,CLEAR 6MM,SpectralAverage,,6.00000E-003,0.77500,7.10000E-002,7.10000E-002,0.88100,8.00000E-002,8.00000E-002,0.00000,0.84000,0.84000,0.90000,1.00000,No
 WindowConstruction,WINDOW_U_0.35_SHGC_0.35,51,3,VerySmooth,1.761,0.380,0.284,0.444
 WindowMaterial:Glazing,LOE TINT 6MM,SpectralAverage,,6.00000E-003,0.36000,9.30000E-002,0.20000,0.50000,3.50000E-002,5.40000E-002,0.00000,0.84000,0.10000,0.90000,1.00000,No
 WindowMaterial:Gas,AIR 13MM,Air,1.270E-002
 WindowMaterial:Glazing,CLEAR 6MM,SpectralAverage,,6.00000E-003,0.77500,7.10000E-002,7.10000E-002,0.88100,8.00000E-002,8.00000E-002,0.00000,0.84000,0.84000,0.90000,1.00000,No
 WindowConstruction,WINDOW_U_0.55_SHGC_0.31,52,3,VerySmooth,3.045,0.368,0.239,0.229
 WindowMaterial:Glazing,REF D TINT 6MM,SpectralAverage,,6.00000E-003,0.30000,0.14000,0.36000,0.25000,0.18000,0.45000,0.00000,0.84000,0.82000,0.90000,1.00000,No
 WindowMaterial:Gas,AIR 6MM,Air,6.300E-003
 WindowMaterial:Glazing,CLEAR 6MM,SpectralAverage,,6.00000E-003,0.77500,7.10000E-002,7.10000E-002,0.88100,8.00000E-002,8.00000E-002,0.00000,0.84000,0.84000,0.90000,1.00000,No
 WindowConstruction,WINDOW_U_0.43_SHGC_0.29,53,3,VerySmooth,2.272,0.313,0.208,0.408
 WindowMaterial:Glazing,LOE SPEC SEL TINT 6MM,SpectralAverage,,6.00000E-003,0.26000,0.14000,0.41000,0.46000,6.00000E-002,4.00000E-002,0.00000,0.84000,3.00000E-002,0.90000,1.00000,No
 WindowMaterial:Gas,AIR 6MM,Air,6.300E-003
 WindowMaterial:Glazing,CLEAR 6MM,SpectralAverage,,6.00000E-003,0.77500,7.10000E-002,7.10000E-002,0.88100,8.00000E-002,8.00000E-002,0.00000,0.84000,0.84000,0.90000,1.00000,No
 WindowConstruction,WINDOW_U_0.34_SHGC_0.45,54,3,VerySmooth,1.932,0.634,0.531,0.721
 WindowMaterial:Glazing,PYR B CLEAR 6MM,SpectralAverage,,6.00000E-003,0.68000,9.00000E-002,0.10000,0.81000,0.11000,0.12000,0.00000,0.84000,0.20000,0.90000,1.00000,No
 WindowMaterial:Gas,AIR 13MM,Air,1.270E-002
 WindowMaterial:Glazing,CLEAR 6MM,SpectralAverage,,6.00000E-003,0.77500,7.10000E-002,7.10000E-002,0.88100,8.00000E-002,8.00000E-002,0.00000,0.84000,0.84000,0.90000,1.00000,No
 WindowConstruction,WINDOW_U_0.56_SHGC_0.35,55,3,VerySmooth,3.045,0.368,0.239,0.229
 WindowMaterial:Glazing,REF D TINT 6MM,SpectralAverage,,6.00000E-003,0.30000,0.14000,0.36000,0.25000,0.18000,0.45000,0.00000,0.84000,0.82000,0.90000,1.00000,No
 WindowMaterial:Gas,AIR 6MM,Air,6.300E-003
 WindowMaterial:Glazing,CLEAR 6MM,SpectralAverage,,6.00000E-003,0.77500,7.10000E-002,7.10000E-002,0.88100,8.00000E-002,8.00000E-002,0.00000,0.84000,0.84000,0.90000,1.00000,No
 WindowConstruction,WINDOW_U_0.45_SHGC_0.31,56,3,VerySmooth,2.447,0.305,0.191,0.271
 WindowMaterial:Glazing,REF B CLEAR HI 6MM,SpectralAverage,,6.00000E-003,0.24000,0.16000,0.32000,0.30000,0.16000,0.29000,0.00000,0.84000,0.60000,0.90000,1.00000,No
 WindowMaterial:Gas,AIR 13MM,Air,1.270E-002
 WindowMaterial:Glazing,CLEAR 6MM,SpectralAverage,,6.00000E-003,0.77500,7.10000E-002,7.10000E-002,0.88100,8.00000E-002,8.00000E-002,0.00000,0.84000,0.84000,0.90000,1.00000,No
 WindowConstruction,WINDOW_U_0.33_SHGC_0.45,57,5,VerySmooth,1.745,0.462,0.377,0.637
 WindowMaterial:Glazing,CLEAR 3MM,SpectralAverage,,3.00000E-003,0.83700,7.50000E-002,7.50000E-002,0.89800,8.10000E-002,8.10000E-002,0.00000,0.84000,0.84000,0.90000,1.00000,No
 WindowMaterial:Gas,AIR 6MM,Air,6.300E-003
 WindowMaterial:Glazing,COATED POLY-77,SpectralAverage,,5.10000E-004,0.50400,0.40200,0.39800,0.76600,0.14700,0.16700,0.00000,7.50000E-002,0.72000,0.14000,1.00000,No
 WindowMaterial:Gas,AIR 6MM,Air,6.300E-003
 WindowMaterial:Glazing,CLEAR 3MM,SpectralAverage,,3.00000E-003,0.83700,7.50000E-002,7.50000E-002,0.89800,8.10000E-002,8.10000E-002,0.00000,0.84000,0.84000,0.90000,1.00000,No
 WindowConstruction,WINDOW_U_0.38_SHGC_0.26,58,3,VerySmooth,2.267,0.242,0.119,0.163
 WindowMaterial:Glazing,REF B TINT HI 6MM,SpectralAverage,,6.00000E-003,0.15000,9.00000E-002,0.33000,0.18000,8.00000E-002,0.28000,0.00000,0.84000,0.60000,0.90000,1.00000,No
 WindowMaterial:Gas,ARGON 13MM,Argon,1.270E-002
 WindowMaterial:Glazing,CLEAR 6MM,SpectralAverage,,6.00000E-003,0.77500,7.10000E-002,7.10000E-002,0.88100,8.00000E-002,8.00000E-002,0.00000,0.84000,0.84000,0.90000,1.00000,No
 WindowConstruction,WINDOW_U_0.25_SHGC_0.40,59,3,VerySmooth,1.493,0.373,0.284,0.444
 WindowMaterial:Glazing,LOE TINT 6MM,SpectralAverage,,6.00000E-003,0.36000,9.30000E-002,0.20000,0.50000,3.50000E-002,5.40000E-002,0.00000,0.84000,0.10000,0.90000,1.00000,No
 WindowMaterial:Gas,ARGON 13MM,Argon,1.270E-002
 WindowMaterial:Glazing,CLEAR 6MM,SpectralAverage,,6.00000E-003,0.77500,7.10000E-002,7.10000E-002,0.88100,8.00000E-002,8.00000E-002,0.00000,0.84000,0.84000,0.90000,1.00000,No
 WindowConstruction,WINDOW_U_0.35_SHGC_0.26,60,3,VerySmooth,2.158,0.238,0.136,0.173
 WindowMaterial:Glazing,REF C CLEAR MID 6MM,SpectralAverage,,6.00000E-003,0.17000,0.20000,0.42000,0.19000,0.21000,0.38000,0.00000,0.84000,0.51000,0.90000,1.00000,No
 WindowMaterial:Gas,ARGON 13MM,Argon,1.270E-002
 WindowMaterial:Glazing,CLEAR 6MM,SpectralAverage,,6.00000E-003,0.77500,7.10000E-002,7.10000E-002,0.88100,8.00000E-002,8.00000E-002,0.00000,0.84000,0.84000,0.90000,1.00000,No
 WindowConstruction,WINDOW_U_0.54_SHGC_0.27,61,3,VerySmooth,2.848,0.287,0.160,0.200
 WindowMaterial:Glazing,REF C CLEAR HI 6MM,SpectralAverage,,6.00000E-003,0.20000,0.16000,0.39000,0.22000,0.17000,0.35000,0.00000,0.84000,0.55000,0.90000,1.00000,No
 WindowMaterial:Gas,AIR 6MM,Air,6.300E-003
 WindowMaterial:Glazing,CLEAR 6MM,SpectralAverage,,6.00000E-003,0.77500,7.10000E-002,7.10000E-002,0.88100,8.00000E-002,8.00000E-002,0.00000,0.84000,0.84000,0.90000,1.00000,No
 WindowConstruction,WINDOW_U_0.54_SHGC_0.18,62,3,VerySmooth,2.779,0.187,4.810E-002,8.185E-002
 WindowMaterial:Glazing,REF A TINT MID 6MM,SpectralAverage,,6.00000E-003,6.00000E-002,0.13000,0.42000,9.00000E-002,0.14000,0.35000,0.00000,0.84000,0.47000,0.90000,1.00000,No
 WindowMaterial:Gas,AIR 6MM,Air,6.300E-003
 WindowMaterial:Glazing,CLEAR 6MM,SpectralAverage,,6.00000E-003,0.77500,7.10000E-002,7.10000E-002,0.88100,8.00000E-002,8.00000E-002,0.00000,0.84000,0.84000,0.90000,1.00000,No
 WindowConstruction,WINDOW_U_0.54_SHGC_0.13,63,3,VerySmooth,2.219,0.138,5.319E-002,7.288E-002
 WindowMaterial:Glazing,REF A CLEAR LO 6MM,SpectralAverage,,6.00000E-003,6.60000E-002,0.34100,0.49300,8.00000E-002,0.41000,0.37000,0.00000,0.84000,0.40000,0.90000,1.00000,No
 WindowMaterial:Gas,AIR 13MM,Air,1.270E-002
 WindowMaterial:Glazing,CLEAR 6MM,SpectralAverage,,6.00000E-003,0.77500,7.10000E-002,7.10000E-002,0.88100,8.00000E-002,8.00000E-002,0.00000,0.84000,0.84000,0.90000,1.00000,No
 WindowConstruction,WINDOW_U_0.33_SHGC_0.11,64,3,VerySmooth,1.614,0.119,4.705E-002,0.120
 WindowMaterial:Glazing,ECREF-2 COLORED 6MM,SpectralAverage,,6.00000E-003,9.90000E-002,0.21900,0.21900,0.15500,7.30000E-002,7.30000E-002,0.00000,0.84000,0.10000,0.90000,1.00000,No
 WindowMaterial:Gas,AIR 13MM,Air,1.270E-002
 WindowMaterial:Glazing,LOE SPEC SEL CLEAR 6MM REV,SpectralAverage,,6.00000E-003,0.43000,0.42000,0.30000,0.77000,6.00000E-002,7.00000E-002,0.00000,3.00000E-002,0.84000,0.90000,1.00000,No
 WindowConstruction,WINDOW_U_0.29_SHGC_0.22,65,5,VerySmooth,1.703,0.234,0.129,0.274
 WindowMaterial:Glazing,BRONZE 6MM,SpectralAverage,,6.00000E-003,0.48200,5.40000E-002,5.40000E-002,0.53400,5.70000E-002,5.70000E-002,0.00000,0.84000,0.84000,0.90000,1.00000,No
 WindowMaterial:Gas,AIR 6MM,Air,6.300E-003
 WindowMaterial:Glazing,COATED POLY-55,SpectralAverage,,5.10000E-004,0.32000,0.58200,0.59300,0.55100,0.33600,0.37500,0.00000,4.60000E-002,0.72000,0.14000,1.00000,No
 WindowMaterial:Gas,AIR 6MM,Air,6.300E-003
 WindowMaterial:Glazing,CLEAR 6MM,SpectralAverage,,6.00000E-003,0.77500,7.10000E-002,7.10000E-002,0.88100,8.00000E-002,8.00000E-002,0.00000,0.84000,0.84000,0.90000,1.00000,No
 WindowConstruction,WINDOW_U_0.29_SHGC_0.17,66,3,VerySmooth,1.761,0.169,8.718E-002,0.114
 WindowMaterial:Glazing,ECABS-2 COLORED 6MM,SpectralAverage,,6.00000E-003,0.11100,0.17900,0.17900,0.12800,8.10000E-002,8.10000E-002,0.00000,0.84000,0.10000,0.90000,1.00000,No
 WindowMaterial:Gas,AIR 13MM,Air,1.270E-002
 WindowMaterial:Glazing,CLEAR 6MM,SpectralAverage,,6.00000E-003,0.77500,7.10000E-002,7.10000E-002,0.88100,8.00000E-002,8.00000E-002,0.00000,0.84000,0.84000,0.90000,1.00000,No
 WindowConstruction,WINDOW_U_0.29_SHGC_0.11,67,3,VerySmooth,1.614,0.119,4.705E-002,0.120
 WindowMaterial:Glazing,ECREF-2 COLORED 6MM,SpectralAverage,,6.00000E-003,9.90000E-002,0.21900,0.21900,0.15500,7.30000E-002,7.30000E-002,0.00000,0.84000,0.10000,0.90000,1.00000,No
 WindowMaterial:Gas,AIR 13MM,Air,1.270E-002
 WindowMaterial:Glazing,LOE SPEC SEL CLEAR 6MM REV,SpectralAverage,,6.00000E-003,0.43000,0.42000,0.30000,0.77000,6.00000E-002,7.00000E-002,0.00000,3.00000E-002,0.84000,0.90000,1.00000,No
 WindowConstruction,WINDOW_U_0.24_SHGC_0.23,68,3,VerySmooth,1.333,0.283,0.208,0.408
 WindowMaterial:Glazing,LOE SPEC SEL TINT 6MM,SpectralAverage,,6.00000E-003,0.26000,0.14000,0.41000,0.46000,6.00000E-002,4.00000E-002,0.00000,0.84000,3.00000E-002,0.90000,1.00000,No
 WindowMaterial:Gas,ARGON 13MM,Argon,1.270E-002
 WindowMaterial:Glazing,CLEAR 6MM,SpectralAverage,,6.00000E-003,0.77500,7.10000E-002,7.10000E-002,0.88100,8.00000E-002,8.00000E-002,0.00000,0.84000,0.84000,0.90000,1.00000,No
 WindowConstruction,WINDOW_U_0.24_SHGC_0.16,69,3,VerySmooth,1.493,0.158,8.718E-002,0.114
 WindowMaterial:Glazing,ECABS-2 COLORED 6MM,SpectralAverage,,6.00000E-003,0.11100,0.17900,0.17900,0.12800,8.10000E-002,8.10000E-002,0.00000,0.84000,0.10000,0.90000,1.00000,No
 WindowMaterial:Gas,ARGON 13MM,Argon,1.270E-002
 WindowMaterial:Glazing,CLEAR 6MM,SpectralAverage,,6.00000E-003,0.77500,7.10000E-002,7.10000E-002,0.88100,8.00000E-002,8.00000E-002,0.00000,0.84000,0.84000,0.90000,1.00000,No
 WindowConstruction,WINDOW_U_0.24_SHGC_0.11,70,3,VerySmooth,1.318,0.115,5.180E-002,9.912E-002
 WindowMaterial:Glazing,ECABS-2 COLORED 6MM,SpectralAverage,,6.00000E-003,0.11100,0.17900,0.17900,0.12800,8.10000E-002,8.10000E-002,0.00000,0.84000,0.10000,0.90000,1.00000,No
 WindowMaterial:Gas,ARGON 13MM,Argon,1.270E-002
 WindowMaterial:Glazing,LOE SPEC SEL CLEAR 6MM REV,SpectralAverage,,6.00000E-003,0.43000,0.42000,0.30000,0.77000,6.00000E-002,7.00000E-002,0.00000,3.00000E-002,0.84000,0.90000,1.00000,No
 WindowConstruction,WINDOW_U_0.19_SHGC_0.20,71,5,VerySmooth,1.208,0.222,0.129,0.274
 WindowMaterial:Glazing,BRONZE 6MM,SpectralAverage,,6.00000E-003,0.48200,5.40000E-002,5.40000E-002,0.53400,5.70000E-002,5.70000E-002,0.00000,0.84000,0.84000,0.90000,1.00000,No
 WindowMaterial:Gas,AIR 13MM,Air,1.270E-002
 WindowMaterial:Glazing,COATED POLY-55,SpectralAverage,,5.10000E-004,0.32000,0.58200,0.59300,0.55100,0.33600,0.37500,0.00000,4.60000E-002,0.72000,0.14000,1.00000,No
 WindowMaterial:Gas,AIR 13MM,Air,1.270E-002
 WindowMaterial:Glazing,CLEAR 6MM,SpectralAverage,,6.00000E-003,0.77500,7.10000E-002,7.10000E-002,0.88100,8.00000E-002,8.00000E-002,0.00000,0.84000,0.84000,0.90000,1.00000,No
 WindowConstruction,WINDOW_U_0.71_SHGC_0.25,72,3,VerySmooth,2.848,0.287,0.160,0.200
 WindowMaterial:Glazing,REF C CLEAR HI 6MM,SpectralAverage,,6.00000E-003,0.20000,0.16000,0.39000,0.22000,0.17000,0.35000,0.00000,0.84000,0.55000,0.90000,1.00000,No
 WindowMaterial:Gas,AIR 6MM,Air,6.300E-003
 WindowMaterial:Glazing,CLEAR 6MM,SpectralAverage,,6.00000E-003,0.77500,7.10000E-002,7.10000E-002,0.88100,8.00000E-002,8.00000E-002,0.00000,0.84000,0.84000,0.90000,1.00000,No
 WindowConstruction,WINDOW_U_0.38_SHGC_0.30,73,3,VerySmooth,2.267,0.300,0.191,0.271
 WindowMaterial:Glazing,REF B CLEAR HI 6MM,SpectralAverage,,6.00000E-003,0.24000,0.16000,0.32000,0.30000,0.16000,0.29000,0.00000,0.84000,0.60000,0.90000,1.00000,No
 WindowMaterial:Gas,ARGON 13MM,Argon,1.270E-002
 WindowMaterial:Glazing,CLEAR 6MM,SpectralAverage,,6.00000E-003,0.77500,7.10000E-002,7.10000E-002,0.88100,8.00000E-002,8.00000E-002,0.00000,0.84000,0.84000,0.90000,1.00000,No
 WindowConstruction,WINDOW_U_0.36_SHGC_0.35,74,3,VerySmooth,2.272,0.313,0.208,0.408
 WindowMaterial:Glazing,LOE SPEC SEL TINT 6MM,SpectralAverage,,6.00000E-003,0.26000,0.14000,0.41000,0.46000,6.00000E-002,4.00000E-002,0.00000,0.84000,3.00000E-002,0.90000,1.00000,No
 WindowMaterial:Gas,AIR 6MM,Air,6.300E-003
 WindowMaterial:Glazing,CLEAR 6MM,SpectralAverage,,6.00000E-003,0.77500,7.10000E-002,7.10000E-002,0.88100,8.00000E-002,8.00000E-002,0.00000,0.84000,0.84000,0.90000,1.00000,No
 WindowConstruction,WINDOW_U_0.30_SHGC_0.40,75,3,VerySmooth,1.761,0.380,0.284,0.444
 WindowMaterial:Glazing,LOE TINT 6MM,SpectralAverage,,6.00000E-003,0.36000,9.30000E-002,0.20000,0.50000,3.50000E-002,5.40000E-002,0.00000,0.84000,0.10000,0.90000,1.00000,No
 WindowMaterial:Gas,AIR 13MM,Air,1.270E-002
 WindowMaterial:Glazing,CLEAR 6MM,SpectralAverage,,6.00000E-003,0.77500,7.10000E-002,7.10000E-002,0.88100,8.00000E-002,8.00000E-002,0.00000,0.84000,0.84000,0.90000,1.00000,No
 WindowConstruction,WINDOW_U_0.45_SHGC_0.27,76,3,VerySmooth,2.417,0.260,0.146,0.293
 WindowMaterial:Glazing,GLASS_12116_LAYERAVG,SpectralAverage,,4.75000E-003,0.17187,0.10946,0.21999,0.32277,0.18260,8.16540E-002,0.00000,0.84000,0.53827,1.00035,1.00000,No
 WindowMaterial:Gas,AIR 13MM,Air,1.270E-002
 WindowMaterial:Glazing,GLASS_102_LAYERAVG,SpectralAverage,,3.04800E-003,0.83385,7.47638E-002,7.48545E-002,0.89926,8.25630E-002,8.25640E-002,0.00000,0.84000,0.84000,1.00000,1.00000,No
 WindowConstruction,WINDOW_U_0.39_SHGC_0.36,77,3,VerySmooth,2.371,0.397,0.284,0.444
 WindowMaterial:Glazing,LOE TINT 6MM,SpectralAverage,,6.00000E-003,0.36000,9.30000E-002,0.20000,0.50000,3.50000E-002,5.40000E-002,0.00000,0.84000,0.10000,0.90000,1.00000,No
 WindowMaterial:Gas,AIR 6MM,Air,6.300E-003
 WindowMaterial:Glazing,CLEAR 6MM,SpectralAverage,,6.00000E-003,0.77500,7.10000E-002,7.10000E-002,0.88100,8.00000E-002,8.00000E-002,0.00000,0.84000,0.84000,0.90000,1.00000,No
 WindowConstruction,WINDOW_U_1.98_SHGC_0.36,78,1,VerySmooth,5.067,0.400,0.241,0.301
 WindowMaterial:Glazing,REF B CLEAR HI 6MM,SpectralAverage,,6.00000E-003,0.24000,0.16000,0.32000,0.30000,0.16000,0.29000,0.00000,0.84000,0.60000,0.90000,1.00000,No
 WindowConstruction,WINDOW_U_1.17_SHGC_0.39,79,1,VerySmooth,5.067,0.400,0.241,0.301
 WindowMaterial:Glazing,REF B CLEAR HI 6MM,SpectralAverage,,6.00000E-003,0.24000,0.16000,0.32000,0.30000,0.16000,0.29000,0.00000,0.84000,0.60000,0.90000,1.00000,No
 WindowConstruction,WINDOW_U_1.98_SHGC_0.61,80,1,VerySmooth,5.778,0.623,0.487,0.749
 WindowMaterial:Glazing,GREEN 6MM,SpectralAverage,,6.00000E-003,0.48700,5.60000E-002,5.60000E-002,0.74900,7.00000E-002,7.00000E-002,0.00000,0.84000,0.84000,0.90000,1.00000,No
 WindowConstruction,WINDOW_U_1.17_SHGC_0.49,81,1,VerySmooth,5.720,0.506,0.431,0.335
 WindowMaterial:Glazing,REF D CLEAR 6MM,SpectralAverage,,6.00000E-003,0.42900,0.30800,0.37900,0.33400,0.45300,0.50500,0.00000,0.84000,0.82000,0.90000,1.00000,No
 WindowConstruction,WINDOW_U_1.17_SHGC_0.68,82,1,VerySmooth,5.894,0.722,0.635,0.822
 WindowMaterial:Glazing,GREEN 3MM,SpectralAverage,,3.00000E-003,0.63500,6.30000E-002,6.30000E-002,0.82200,7.50000E-002,7.50000E-002,0.00000,0.84000,0.84000,0.90000,1.00000,No
 WindowConstruction,WINDOW_U_0.98_SHGC_0.45,83,1,VerySmooth,5.067,0.400,0.241,0.301
 WindowMaterial:Glazing,REF B CLEAR HI 6MM,SpectralAverage,,6.00000E-003,0.24000,0.16000,0.32000,0.30000,0.16000,0.29000,0.00000,0.84000,0.60000,0.90000,1.00000,No
 WindowConstruction,WINDOW_U_0.98_SHGC_0.68,84,1,VerySmooth,5.067,0.400,0.241,0.301
 WindowMaterial:Glazing,REF B CLEAR HI 6MM,SpectralAverage,,6.00000E-003,0.24000,0.16000,0.32000,0.30000,0.16000,0.29000,0.00000,0.84000,0.60000,0.90000,1.00000,No
 WindowConstruction,WINDOW_U_0.88_SHGC_0.16,85,1,VerySmooth,4.440,0.202,6.623E-002,8.028E-002
 WindowMaterial:Glazing,REF A CLEAR LO 6MM,SpectralAverage,,6.00000E-003,6.60000E-002,0.34100,0.49300,8.00000E-002,0.41000,0.37000,0.00000,0.84000,0.40000,0.90000,1.00000,No
 WindowConstruction,WINDOW_U_0.88_SHGC_0.27,86,1,VerySmooth,5.778,0.306,9.905E-002,0.155
 WindowMaterial:Glazing,ECREF-1 COLORED 6MM,SpectralAverage,,6.00000E-003,9.90000E-002,0.21900,0.21900,0.15500,7.30000E-002,7.30000E-002,0.00000,0.84000,0.84000,0.90000,1.00000,No
 WindowConstruction,WINDOW_U_0.52_SHGC_0.22,87,3,VerySmooth,2.872,0.241,0.120,0.182
 WindowMaterial:Glazing,REF B CLEAR LO 6MM,SpectralAverage,,6.00000E-003,0.15000,0.22000,0.38000,0.20000,0.23000,0.33000,0.00000,0.84000,0.58000,0.90000,1.00000,No
 WindowMaterial:Gas,AIR 6MM,Air,6.300E-003
 WindowMaterial:Glazing,CLEAR 6MM,SpectralAverage,,6.00000E-003,0.77500,7.10000E-002,7.10000E-002,0.88100,8.00000E-002,8.00000E-002,0.00000,0.84000,0.84000,0.90000,1.00000,No
 WindowConstruction,WINDOW_U_0.44_SHGC_0.20,88,3,VerySmooth,2.447,0.248,0.119,0.163
 WindowMaterial:Glazing,REF B TINT HI 6MM,SpectralAverage,,6.00000E-003,0.15000,9.00000E-002,0.33000,0.18000,8.00000E-002,0.28000,0.00000,0.84000,0.60000,0.90000,1.00000,No
 WindowMaterial:Gas,AIR 13MM,Air,1.270E-002
 WindowMaterial:Glazing,CLEAR 6MM,SpectralAverage,,6.00000E-003,0.77500,7.10000E-002,7.10000E-002,0.88100,8.00000E-002,8.00000E-002,0.00000,0.84000,0.84000,0.90000,1.00000,No
 WindowConstruction,WINDOW_U_0.39_SHGC_0.38,89,1,VerySmooth,2.193,0.395,0.375,0.530
 WindowMaterial:Glazing,THEORETICAL GLASS 297,SpectralAverage,,3.00000E-003,0.37504,0.57496,0.57496,0.52970,0.42030,0.42030,0.00000,0.90000,0.90000,1.03561E-002,1.00000,No
 WindowConstruction,WINDOW_U_0.39_SHGC_0.32,90,1,VerySmooth,2.194,0.336,0.315,0.480
 WindowMaterial:Glazing,THEORETICAL GLASS 347,SpectralAverage,,3.00000E-003,0.31586,0.63414,0.63414,0.47991,0.47009,0.47009,0.00000,0.90000,0.90000,1.03580E-002,1.00000,No
 WindowConstruction,WINDOW_U_0.75_SHGC_0.72,91,1,VerySmooth,3.779,0.720,0.680,0.811
 WindowMaterial:Glazing,PYR B CLEAR 6MM,SpectralAverage,,6.00000E-003,0.68000,9.00000E-002,0.10000,0.81000,0.11000,0.12000,0.00000,0.84000,0.20000,0.90000,1.00000,No
 WindowConstruction,WINDOW_U_0.67_SHGC_0.77,92,1,VerySmooth,3.835,0.768,0.741,0.821
 WindowMaterial:Glazing,PYR B CLEAR 3MM,SpectralAverage,,3.00000E-003,0.74000,9.00000E-002,0.10000,0.82000,0.11000,0.12000,0.00000,0.84000,0.20000,0.90000,1.00000,No
 WindowConstruction,WINDOW_U_0.56_SHGC_0.76,93,3,VerySmooth,3.122,0.762,0.705,0.812
 WindowMaterial:Glazing,CLEAR 3MM,SpectralAverage,,3.00000E-003,0.83700,7.50000E-002,7.50000E-002,0.89800,8.10000E-002,8.10000E-002,0.00000,0.84000,0.84000,0.90000,1.00000,No
 WindowMaterial:Gas,AIR 6MM,Air,6.300E-003
 WindowMaterial:Glazing,CLEAR 3MM,SpectralAverage,,3.00000E-003,0.83700,7.50000E-002,7.50000E-002,0.89800,8.10000E-002,8.10000E-002,0.00000,0.84000,0.84000,0.90000,1.00000,No
 WindowConstruction,WINDOW_U_0.40_SHGC_0.43,94,3,VerySmooth,2.288,0.434,0.359,0.691
 WindowMaterial:Glazing,LOE SPEC SEL CLEAR 3MM,SpectralAverage,,3.00000E-003,0.45000,0.34000,0.37000,0.78000,7.00000E-002,6.00000E-002,0.00000,0.84000,3.00000E-002,0.90000,1.00000,No
 WindowMaterial:Gas,AIR 6MM,Air,6.300E-003
 WindowMaterial:Glazing,CLEAR 6MM,SpectralAverage,,6.00000E-003,0.77500,7.10000E-002,7.10000E-002,0.88100,8.00000E-002,8.00000E-002,0.00000,0.84000,0.84000,0.90000,1.00000,No
 WindowConstruction,WINDOW_U_0.40_SHGC_0.45,95,3,VerySmooth,2.262,0.469,0.364,0.657
 WindowMaterial:Glazing,ECABS-2 BLEACHED 6MM,SpectralAverage,,6.00000E-003,0.81400,8.60000E-002,8.60000E-002,0.84700,9.90000E-002,9.90000E-002,0.00000,0.84000,0.10000,0.90000,1.00000,No
 WindowMaterial:Gas,AIR 6MM,Air,6.300E-003
 WindowMaterial:Glazing,LOE SPEC SEL CLEAR 6MM REV,SpectralAverage,,6.00000E-003,0.43000,0.42000,0.30000,0.77000,6.00000E-002,7.00000E-002,0.00000,3.00000E-002,0.84000,0.90000,1.00000,No
 WindowConstruction,WINDOW_U_0.60_SHGC_0.25,96,3,VerySmooth,3.511,0.227,7.258E-002,0.284
 WindowMaterial:Glazing,GLASS_2175_LAYERAVG,SpectralAverage,,8.60000E-003,0.16776,0.21761,0.43798,0.41604,7.87290E-002,0.10654,0.00000,0.84000,0.84000,1.00000,1.00000,No
 WindowMaterial:Gas,GAP_1_W_0_0025,Air,2.500E-003
 WindowMaterial:Glazing,GLASS_2022F_LAYERAVG,SpectralAverage,,3.90000E-003,0.35590,0.39409,0.26565,0.67769,4.27340E-002,5.54700E-002,0.00000,4.60000E-002,0.84000,1.00000,1.00000,No
 WindowConstruction,WINDOW_U_0.55_SHGC_0.25,97,3,VerySmooth,3.191,0.218,7.258E-002,0.284
 WindowMaterial:Glazing,GLASS_2175_LAYERAVG,SpectralAverage,,8.60000E-003,0.16776,0.21761,0.43798,0.41604,7.87290E-002,0.10654,0.00000,0.84000,0.84000,1.00000,1.00000,No
 WindowMaterial:Gas,GAP_1_W_0_0032,Air,3.200E-003
 WindowMaterial:Glazing,GLASS_2022F_LAYERAVG,SpectralAverage,,3.90000E-003,0.35590,0.39409,0.26565,0.67769,4.27340E-002,5.54700E-002,0.00000,4.60000E-002,0.84000,1.00000,1.00000,No
 WindowConstruction,WINDOW_U_0.50_SHGC_0.25,98,3,VerySmooth,2.829,0.208,7.258E-002,0.284
 WindowMaterial:Glazing,GLASS_2175_LAYERAVG,SpectralAverage,,8.60000E-003,0.16776,0.21761,0.43798,0.41604,7.87290E-002,0.10654,0.00000,0.84000,0.84000,1.00000,1.00000,No
 WindowMaterial:Gas,GAP_1_W_0_0042,Air,4.200E-003
 WindowMaterial:Glazing,GLASS_2022F_LAYERAVG,SpectralAverage,,3.90000E-003,0.35590,0.39409,0.26565,0.67769,4.27340E-002,5.54700E-002,0.00000,4.60000E-002,0.84000,1.00000,1.00000,No
 WindowConstruction,WINDOW_U_0.47_SHGC_0.40,99,3,VerySmooth,2.810,0.360,0.227,0.471
 WindowMaterial:Glazing,GLASS_2052_LAYERAVG,SpectralAverage,,8.37000E-003,0.50777,5.42281E-002,5.44931E-002,0.58683,5.80500E-002,5.83970E-002,0.00000,0.84000,0.84000,1.00000,1.00000,No
 WindowMaterial:Gas,GAP_1_W_0_0043,Air,4.300E-003
 WindowMaterial:Glazing,GLASS_2010F_LAYERAVG,SpectralAverage,,2.21000E-003,0.43429,0.41837,0.34107,0.79758,4.35770E-002,5.60310E-002,0.00000,4.22740E-002,0.84000,1.00000,1.00000,No
 WindowConstruction,WINDOW_U_0.75_SHGC_0.35,100,3,VerySmooth,3.906,0.353,0.194,0.452
 WindowMaterial:Glazing,GLASS_2052_LAYERAVG,SpectralAverage,,8.37000E-003,0.50777,5.42281E-002,5.44931E-002,0.58683,5.80500E-002,5.83970E-002,0.00000,0.84000,0.84000,1.00000,1.00000,No
 WindowMaterial:Gas,GAP_1_W_0_0018,Air,1.800E-003
 WindowMaterial:Glazing,GLASS_2027F_LAYERAVG,SpectralAverage,,4.00000E-003,0.36974,0.47007,0.34094,0.76522,5.46000E-002,7.37410E-002,0.00000,3.67500E-002,0.84000,1.00000,1.00000,No
 WindowConstruction,WINDOW_U_0.65_SHGC_0.35,101,3,VerySmooth,3.559,0.347,0.194,0.452
 WindowMaterial:Glazing,GLASS_2052_LAYERAVG,SpectralAverage,,8.37000E-003,0.50777,5.42281E-002,5.44931E-002,0.58683,5.80500E-002,5.83970E-002,0.00000,0.84000,0.84000,1.00000,1.00000,No
 WindowMaterial:Gas,GAP_1_W_0_0024,Air,2.400E-003
 WindowMaterial:Glazing,GLASS_2027F_LAYERAVG,SpectralAverage,,4.00000E-003,0.36974,0.47007,0.34094,0.76522,5.46000E-002,7.37410E-002,0.00000,3.67500E-002,0.84000,1.00000,1.00000,No
 WindowConstruction,WINDOW_U_0.55_SHGC_0.35,102,3,VerySmooth,2.956,0.335,0.194,0.452
 WindowMaterial:Glazing,GLASS_2052_LAYERAVG,SpectralAverage,,8.37000E-003,0.50777,5.42281E-002,5.44931E-002,0.58683,5.80500E-002,5.83970E-002,0.00000,0.84000,0.84000,1.00000,1.00000,No
 WindowMaterial:Gas,GAP_1_W_0_0038,Air,3.800E-003
 WindowMaterial:Glazing,GLASS_2027F_LAYERAVG,SpectralAverage,,4.00000E-003,0.36974,0.47007,0.34094,0.76522,5.46000E-002,7.37410E-002,0.00000,3.67500E-002,0.84000,1.00000,1.00000,No
 WindowConstruction,WINDOW_U_0.50_SHGC_0.40,103,3,VerySmooth,2.956,0.335,0.194,0.452
 WindowMaterial:Glazing,GLASS_2052_LAYERAVG,SpectralAverage,,8.37000E-003,0.50777,5.42281E-002,5.44931E-002,0.58683,5.80500E-002,5.83970E-002,0.00000,0.84000,0.84000,1.00000,1.00000,No
 WindowMaterial:Gas,GAP_1_W_0_0038,Air,3.800E-003
 WindowMaterial:Glazing,GLASS_2027F_LAYERAVG,SpectralAverage,,4.00000E-003,0.36974,0.47007,0.34094,0.76522,5.46000E-002,7.37410E-002,0.00000,3.67500E-002,0.84000,1.00000,1.00000,No
 WindowConstruction,WINDOW_U_1.16_SHGC_0.25,104,1,VerySmooth,5.778,0.306,9.905E-002,0.155
 WindowMaterial:Glazing,ECREF-1 COLORED 6MM,SpectralAverage,,6.00000E-003,9.90000E-002,0.21900,0.21900,0.15500,7.30000E-002,7.30000E-002,0.00000,0.84000,0.84000,0.90000,1.00000,No
 WindowConstruction,WINDOW_U_1.08_SHGC_0.25,105,1,VerySmooth,5.778,0.306,9.905E-002,0.155
[...]
HeatTransfer_Surface,PERIMETER_MID_ZN_2_WALL_EAST_WINDOW,Window,PERIMETER_MID_ZN_2_WALL_EAST,Window5 Detailed Fenestration,WINDOW_U_0.41_SHGC_0.38,N/A,2.245,No,43.51,43.51,43.51,90.00,90.00,33.27,1.31,0.00,ExternalEnvironment,ASHRAETARP,ASHRAETARP,SunExposed,WindExposed,0.50,0.50,0.50,0.50,4
HeatTransfer_Surface,PERIMETER_MID_ZN_2_WALL_NORTH,Wall,,CTF - ConductionTransferFunction,INT_WALL,6.299,3.242,,17.74,17.74,17.74,315.00,90.00,6.47,2.74,0.00,iz-PERIMETER_MID_ZN_2_WALL_NORTH,Other/Same Surface Int Conv,ASHRAETARP,NoSun,NoWind,0.50,0.50,0.50,0.50,4
HeatTransfer_Surface,iz-PERIMETER_MID_ZN_1_WALL_EAST,Wall,,CTF - ConductionTransferFunction,INT_WALL,6.299,3.242,,17.74,17.74,17.74,225.00,90.00,6.47,2.74,0.00,PERIMETER_MID_ZN_1_WALL_EAST,Other/Same Surface Int Conv,ASHRAETARP,NoSun,NoWind,0.50,0.50,0.50,0.50,4
HeatTransfer_Surface,iz-CORE_MID_ZN_5_WALL_EAST,Wall,,CTF - ConductionTransferFunction,INT_WALL,6.299,3.242,,66.19,66.19,66.19,270.00,90.00,24.13,2.74,0.00,CORE_MID_ZN_5_WALL_EAST,Other/Same Surface Int Conv,ASHRAETARP,NoSun,NoWind,0.50,0.50,0.50,0.50,4
HeatTransfer_Surface,PERIMETER_MID_ZN_2_FLOOR,Floor,,CTF - ConductionTransferFunction,INT_SLAB_FLOOR,3.839,1.986,,131.26,131.26,131.26,90.00,180.00,24.13,6.47,0.00,iz-PERIMETER_MID_ZN_2_FLOOR,Other/Same Surface Int Conv,ASHRAETARP,NoSun,NoWind,1.00,0.00,1.00,0.00,4
HeatTransfer_Surface,PERIMETER_MID_ZN_2_CEILING,Roof,,CTF - ConductionTransferFunction,DROPCEILING,4.488,2.432,,131.26,131.26,131.26,270.00,0.00,24.13,6.47,0.00,iz-PERIMETER_MID_ZN_2_CEILING,Other/Same Surface Int Conv,ASHRAETARP,NoSun,NoWind,0.00,1.00,0.00,1.00,4
HeatTransfer_Surface,PERIMETER_MID_ZN_2_INTERNALMASS_1,Internal Mass,,CTF - ConductionTransferFunction,INTERIORFURNISHINGS,0.800,0.800,,262.51,262.51,262.51,0.00,90.00,262.51,1.00,0.00,PERIMETER_MID_ZN_2_INTERNALMASS_1,Other/Same Surface Int Conv,ASHRAETARP,NoSun,NoWind,0.00,0.50,1.00,0.00,0
Zone_Surfaces,PERIMETER_MID_ZN_1,    8
HeatTransfer_Surface,PERIMETER_MID_ZN_1_WALL_SOUTH,Wall,,CTF - ConductionTransferFunction,NONRES_EXT_WALL,0.328,0.312,,71.65,136.92,71.65,180.00,90.00,49.91,2.74,0.00,ExternalEnvironment,ASHRAETARP,ASHRAETARP,SunExposed,WindExposed,0.50,0.50,0.50,0.50,4
HeatTransfer_Surface,PERIMETER_MID_ZN_1_WALL_SOUTH_WINDOW,Window,PERIMETER_MID_ZN_1_WALL_SOUTH,Window5 Detailed Fenestration,WINDOW_U_0.41_SHGC_0.38,N/A,2.245,No,65.26,65.26,65.26,180.00,90.00,49.91,1.31,0.00,ExternalEnvironment,ASHRAETARP,ASHRAETARP,SunExposed,WindExposed,0.50,0.50,0.50,0.50,4
HeatTransfer_Surface,PERIMETER_MID_ZN_1_WALL_EAST,Wall,,CTF - ConductionTransferFunction,INT_WALL,6.299,3.242,,17.74,17.74,17.74,45.00,90.00,6.47,2.74,0.00,iz-PERIMETER_MID_ZN_1_WALL_EAST,Other/Same Surface Int Conv,ASHRAETARP,NoSun,NoWind,0.50,0.50,0.50,0.50,4
HeatTransfer_Surface,iz-PERIMETER_MID_ZN_4_WALL_SOUTH,Wall,,CTF - ConductionTransferFunction,INT_WALL,6.299,3.242,,17.74,17.74,17.74,315.00,90.00,6.47,2.74,0.00,PERIMETER_MID_ZN_4_WALL_SOUTH,Other/Same Surface Int Conv,ASHRAETARP,NoSun,NoWind,0.50,0.50,0.50,0.50,4
HeatTransfer_Surface,iz-CORE_MID_ZN_5_WALL_SOUTH,Wall,,CTF - ConductionTransferFunction,INT_WALL,6.299,3.242,,111.82,111.82,111.82,0.00,90.00,40.76,2.74,0.00,CORE_MID_ZN_5_WALL_SOUTH,Other/Same Surface Int Conv,ASHRAETARP,NoSun,NoWind,0.50,0.50,0.50,0.50,4
HeatTransfer_Surface,PERIMETER_MID_ZN_1_FLOOR,Floor,,CTF - ConductionTransferFunction,INT_SLAB_FLOOR,3.839,1.986,,207.34,207.34,207.34,180.00,180.00,40.76,6.47,0.00,iz-PERIMETER_MID_ZN_1_FLOOR,Other/Same Surface Int Conv,ASHRAETARP,NoSun,NoWind,1.00,0.00,1.00,0.00,4
HeatTransfer_Surface,PERIMETER_MID_ZN_1_CEILING,Roof,,CTF - ConductionTransferFunction,DROPCEILING,4.488,2.432,,207.34,207.34,207.34,0.00,0.00,40.76,6.47,0.00,iz-PERIMETER_MID_ZN_1_CEILING,Other/Same Surface Int Conv,ASHRAETARP,NoSun,NoWind,0.00,1.00,0.00,1.00,4
HeatTransfer_Surface,PERIMETER_MID_ZN_1_INTERNALMASS_1,Internal Mass,,CTF - ConductionTransferFunction,INTERIORFURNISHINGS,0.800,0.800,,414.67,414.67,414.67,0.00,90.00,414.67,1.00,0.00,PERIMETER_MID_ZN_1_INTERNALMASS_1,Other/Same Surface Int Conv,ASHRAETARP,NoSun,NoWind,0.00,0.50,1.00,0.00,0
Zone_Surfaces,PERIMETER_MID_ZN_4,    8
HeatTransfer_Surface,PERIMETER_MID_ZN_4_WALL_WEST,Wall,,CTF - ConductionTransferFunction,NONRES_EXT_WALL,0.328,0.312,,47.77,91.28,47.77,270.00,90.00,33.27,2.74,0.00,ExternalEnvironment,ASHRAETARP,ASHRAETARP,SunExposed,WindExposed,0.50,0.50,0.50,0.50,4
HeatTransfer_Surface,PERIMETER_MID_ZN_4_WALL_WEST_WINDOW,Window,PERIMETER_MID_ZN_4_WALL_WEST,Window5 Detailed Fenestration,WINDOW_U_0.41_SHGC_0.38,N/A,2.245,No,43.51,43.51,43.51,270.00,90.00,33.27,1.31,0.00,ExternalEnvironment,ASHRAETARP,ASHRAETARP,SunExposed,WindExposed,0.50,0.50,0.50,0.50,4
HeatTransfer_Surface,PERIMETER_MID_ZN_4_WALL_SOUTH,Wall,,CTF - ConductionTransferFunction,INT_WALL,6.299,3.242,,17.74,17.74,17.74,135.00,90.00,6.47,2.74,0.00,iz-PERIMETER_MID_ZN_4_WALL_SOUTH,Other/Same Surface Int Conv,ASHRAETARP,NoSun,NoWind,0.50,0.50,0.50,0.50,4
HeatTransfer_Surface,iz-PERIMETER_MID_ZN_3_WALL_WEST,Wall,,CTF - ConductionTransferFunction,INT_WALL,6.299,3.242,,17.74,17.74,17.74,45.00,90.00,6.47,2.74,0.00,PERIMETER_MID_ZN_3_WALL_WEST,Other/Same Surface Int Conv,ASHRAETARP,NoSun,NoWind,0.50,0.50,0.50,0.50,4
HeatTransfer_Surface,iz-CORE_MID_ZN_5_WALL_WEST,Wall,,CTF - ConductionTransferFunction,INT_WALL,6.299,3.242,,66.19,66.19,66.19,90.00,90.00,24.13,2.74,0.00,CORE_MID_ZN_5_WALL_WEST,Other/Same Surface Int Conv,ASHRAETARP,NoSun,NoWind,0.50,0.50,0.50,0.50,4
HeatTransfer_Surface,PERIMETER_MID_ZN_4_FLOOR,Floor,,CTF - ConductionTransferFunction,INT_SLAB_FLOOR,3.839,1.986,,131.25,131.25,131.25,270.00,180.00,24.13,6.47,0.00,iz-PERIMETER_MID_ZN_4_FLOOR,Other/Same Surface Int Conv,ASHRAETARP,NoSun,NoWind,1.00,0.00,1.00,0.00,4
HeatTransfer_Surface,PERIMETER_MID_ZN_4_CEILING,Roof,,CTF - ConductionTransferFunction,DROPCEILING,4.488,2.432,,131.25,131.25,131.25,90.00,0.00,24.13,6.47,0.00,iz-PERIMETER_MID_ZN_4_CEILING,Other/Same Surface Int Conv,ASHRAETARP,NoSun,NoWind,0.00,1.00,0.00,1.00,4
HeatTransfer_Surface,PERIMETER_MID_ZN_4_INTERNALMASS_1,Internal Mass,,CTF - ConductionTransferFunction,INTERIORFURNISHINGS,0.800,0.800,,262.51,262.51,262.51,0.00,90.00,262.51,1.00,0.00,PERIMETER_MID_ZN_4_INTERNALMASS_1,Other/Same Surface Int Conv,ASHRAETARP,NoSun,NoWind,0.00,0.50,1.00,0.00,0
! <Environment>,Environment Name,Environment Type, Start Date, End Date, Start DayOfWeek, Duration {#days}, Source:Start DayOfWeek,  Use Daylight Saving, Use Holidays, Apply Weekend Holiday Rule,  Use Rain Values, Use Snow Values
! <Environment:Special Days>, Special Day Name, Special Day Type, Source, Start Date, Duration {#days}
! <Environment:Daylight Saving>, Daylight Saving Indicator, Source, Start Date, End Date
! <Environment:WarmupDays>, NumberofWarmupDays
Environment,BUFFALO.NIAGARA.INTL.AP_NY_USA ANN HTG 99.6% CONDNS DB,SizingPeriod:DesignDay,01/21,01/21,WinterDesignDay,1,N/A,N/A,N/A,N/A,N/A,N/A
Environment:Daylight Saving,No,SizingPeriod:DesignDay
! <Environment:Design Day Data>, Max Dry-Bulb Temp {C}, Temp Range {dC}, Temp Range Ind Type, Hum Ind Value at Max Temp, Hum Ind Type,Pressure {Pa}, Wind Direction {deg CW from N}, Wind Speed {m/s}, Clearness, Rain, Snow
! <Environment:Design_Day_Misc>,DayOfYear,ASHRAE A Coeff,ASHRAE B Coeff,ASHRAE C Coeff,Solar Constant-Annual Variation,Eq of Time {minutes}, Solar Declination Angle {deg}, Solar Model
Environment:Design Day Data,-16.30,0.00,DefaultMultipliers,98769,270,5.1,0.00,No ,No 
Environment:Design_Day_Misc, 21,1229.0,0.1415,5.7310E-002,1.0,-11.15,-20.1,ASHRAEClearSky
Environment:WarmupDays,  7
! <Tabular Report>,Style,Unit Conversion
Tabular Report,Commaandhtml,commaandhtml
! <Warmup Convergence Information>,Zone Name,Environment Type/Name,Average Warmup Temperature Difference {deltaC},Std Dev Warmup Temperature Difference {deltaC},Max Temperature Pass/Fail Convergence,Min Temperature Pass/Fail Convergence,Average Warmup Load Difference {W},Std Dev Warmup Load Difference {W},Heating Load Pass/Fail Convergence,Cooling Load Pass/Fail Convergence
 Warmup Convergence Information,CORE_BOTTOM,SizingPeriod: BUFFALO.NIAGARA.INTL.AP_NY_USA ANN HTG 99.6% CONDNS DB,0.1077678968,0.2037333448,Pass,Pass,0.2930277711,0.4823886353,Pass,Pass
 Warmup Convergence Information,TOPFLOOR_PLENUM,SizingPeriod: BUFFALO.NIAGARA.INTL.AP_NY_USA ANN HTG 99.6% CONDNS DB,0.2494712014,0.2859910472,Pass,Pass,0.3464272165,0.4940200687,Pass,Pass
 Warmup Convergence Information,MIDFLOOR_PLENUM,SizingPeriod: BUFFALO.NIAGARA.INTL.AP_NY_USA ANN HTG 99.6% CONDNS DB,9.8023388506E-002,0.1273265489,Pass,Pass,1.8239330598,14.5848993839,Pass,Pass
 Warmup Convergence Information,FIRSTFLOOR_PLENUM,SizingPeriod: BUFFALO.NIAGARA.INTL.AP_NY_USA ANN HTG 99.6% CONDNS DB,8.0698241038E-002,0.1075520646,Pass,Pass,2.9867567874,26.6820566315,Pass,Pass
 Warmup Convergence Information,CORE_MID,SizingPeriod: BUFFALO.NIAGARA.INTL.AP_NY_USA ANN HTG 99.6% CONDNS DB,0.1632128802,0.2678029474,Pass,Pass,0.3470229156,0.4879229248,Pass,Pass
 Warmup Convergence Information,CORE_TOP,SizingPeriod: BUFFALO.NIAGARA.INTL.AP_NY_USA ANN HTG 99.6% CONDNS DB,0.2216552142,0.3976013522,Pass,Pass,0.3848833481,0.5541144643,Pass,Pass
 Warmup Convergence Information,PERIMETER_TOP_ZN_3,SizingPeriod: BUFFALO.NIAGARA.INTL.AP_NY_USA ANN HTG 99.6% CONDNS DB,0.7267270318,1.0307444295,Pass,Pass,0.7834988799,4.2385766328,Pass,Pass
 Warmup Convergence Information,PERIMETER_TOP_ZN_2,SizingPeriod: BUFFALO.NIAGARA.INTL.AP_NY_USA ANN HTG 99.6% CONDNS DB,0.7445659978,1.0498407576,Pass,Pass,0.6304462287,2.7540574473,Pass,Pass
 Warmup Convergence Information,PERIMETER_TOP_ZN_1,SizingPeriod: BUFFALO.NIAGARA.INTL.AP_NY_USA ANN HTG 99.6% CONDNS DB,0.7265405617,1.0318798309,Pass,Pass,0.6790416456,3.2213362224,Pass,Pass
 Warmup Convergence Information,PERIMETER_TOP_ZN_4,SizingPeriod: BUFFALO.NIAGARA.INTL.AP_NY_USA ANN HTG 99.6% CONDNS DB,0.7556204487,1.0611231934,Pass,Pass,0.6389311414,2.8252265555,Pass,Pass
 Warmup Convergence Information,PERIMETER_BOT_ZN_3,SizingPeriod: BUFFALO.NIAGARA.INTL.AP_NY_USA ANN HTG 99.6% CONDNS DB,0.3923034471,0.6778420026,Pass,Pass,2.3969106789,17.3819127989,Pass,Pass
 Warmup Convergence Information,PERIMETER_BOT_ZN_2,SizingPeriod: BUFFALO.NIAGARA.INTL.AP_NY_USA ANN HTG 99.6% CONDNS DB,0.4094841077,0.6914533140,Pass,Pass,2.1673841805,16.8449029221,Pass,Pass
 Warmup Convergence Information,PERIMETER_BOT_ZN_1,SizingPeriod: BUFFALO.NIAGARA.INTL.AP_NY_USA ANN HTG 99.6% CONDNS DB,0.4004396758,0.6851998902,Pass,Pass,2.0404683377,14.7623794511,Pass,Pass
 Warmup Convergence Information,PERIMETER_BOT_ZN_4,SizingPeriod: BUFFALO.NIAGARA.INTL.AP_NY_USA ANN HTG 99.6% CONDNS DB,0.4169871252,0.6995546228,Pass,Pass,2.1743629530,16.8420459636,Pass,Pass
 Warmup Convergence Information,PERIMETER_MID_ZN_3,SizingPeriod: BUFFALO.NIAGARA.INTL.AP_NY_USA ANN HTG 99.6% CONDNS DB,0.5498629420,0.8351941784,Pass,Pass,0.5600008959,2.6192310564,Pass,Pass
 Warmup Convergence Information,PERIMETER_MID_ZN_2,SizingPeriod: BUFFALO.NIAGARA.INTL.AP_NY_USA ANN HTG 99.6% CONDNS DB,0.5772834618,0.8552225918,Pass,Pass,0.4450003533,1.5398317958,Pass,Pass
 Warmup Convergence Information,PERIMETER_MID_ZN_1,SizingPeriod: BUFFALO.NIAGARA.INTL.AP_NY_USA ANN HTG 99.6% CONDNS DB,0.5607495738,0.8426254506,Pass,Pass,0.4876263194,1.9223301251,Pass,Pass
 Warmup Convergence Information,PERIMETER_MID_ZN_4,SizingPeriod: BUFFALO.NIAGARA.INTL.AP_NY_USA ANN HTG 99.6% CONDNS DB,0.5898436260,0.8671276503,Pass,Pass,0.4559895149,1.6262335331,Pass,Pass
Environment,BUFFALO.NIAGARA.INTL.AP_NY_USA ANN CLG .4% CONDNS DB=>MWB,SizingPeriod:DesignDay,07/21,07/21,SummerDesignDay,1,N/A,N/A,N/A,N/A,N/A,N/A
Environment:Daylight Saving,No,SizingPeriod:DesignDay
Environment:Design Day Data,30.30,9.30,DefaultMultipliers,98769,240,5.7,0.00,No ,No 
Environment:Design_Day_Misc,202,1084.4,0.2082,0.1365,1.0,-6.23,20.6,ASHRAETau
Environment:WarmupDays,  6
 Warmup Convergence Information,CORE_BOTTOM,SizingPeriod: BUFFALO.NIAGARA.INTL.AP_NY_USA ANN CLG .4% CONDNS DB=>MWB,0.5157498753,0.7769902282,Pass,Pass,0.2506869772,0.4901085706,Pass,Pass
 Warmup Convergence Information,TOPFLOOR_PLENUM,SizingPeriod: BUFFALO.NIAGARA.INTL.AP_NY_USA ANN CLG .4% CONDNS DB=>MWB,5.7285112146E-002,5.4255475853E-002,Pass,Pass,0.4101649756,1.3887801801,Pass,Pass
 Warmup Convergence Information,MIDFLOOR_PLENUM,SizingPeriod: BUFFALO.NIAGARA.INTL.AP_NY_USA ANN CLG .4% CONDNS DB=>MWB,5.7785591816E-002,7.4973926405E-002,Pass,Pass,0.2558211710,0.4527882679,Pass,Pass
 Warmup Convergence Information,FIRSTFLOOR_PLENUM,SizingPeriod: BUFFALO.NIAGARA.INTL.AP_NY_USA ANN CLG .4% CONDNS DB=>MWB,9.5664314307E-002,0.1060714488,Pass,Pass,0.2830475444,0.5519239292,Pass,Pass
 Warmup Convergence Information,CORE_MID,SizingPeriod: BUFFALO.NIAGARA.INTL.AP_NY_USA ANN CLG .4% CONDNS DB=>MWB,0.2581561316,0.3613668304,Pass,Pass,0.2325733243,0.4011996819,Pass,Pass
 Warmup Convergence Information,CORE_TOP,SizingPeriod: BUFFALO.NIAGARA.INTL.AP_NY_USA ANN CLG .4% CONDNS DB=>MWB,0.2521506396,0.3574556164,Pass,Pass,0.2334897614,0.4023360466,Pass,Pass
 Warmup Convergence Information,PERIMETER_TOP_ZN_3,SizingPeriod: BUFFALO.NIAGARA.INTL.AP_NY_USA ANN CLG .4% CONDNS DB=>MWB,0.2503536301,0.3741531564,Pass,Pass,0.2339572460,0.4019524961,Pass,Pass
 Warmup Convergence Information,PERIMETER_TOP_ZN_2,SizingPeriod: BUFFALO.NIAGARA.INTL.AP_NY_USA ANN CLG .4% CONDNS DB=>MWB,0.3904463193,0.6072920761,Pass,Pass,0.2421659292,0.3989152325,Pass,Pass
 Warmup Convergence Information,PERIMETER_TOP_ZN_1,SizingPeriod: BUFFALO.NIAGARA.INTL.AP_NY_USA ANN CLG .4% CONDNS DB=>MWB,0.2971713835,0.4921714948,Pass,Pass,0.2410255675,0.4055293990,Pass,Pass
 Warmup Convergence Information,PERIMETER_TOP_ZN_4,SizingPeriod: BUFFALO.NIAGARA.INTL.AP_NY_USA ANN CLG .4% CONDNS DB=>MWB,0.3849248425,0.6422326865,Pass,Pass,0.2466983677,0.4050551384,Pass,Pass
 Warmup Convergence Information,PERIMETER_BOT_ZN_3,SizingPeriod: BUFFALO.NIAGARA.INTL.AP_NY_USA ANN CLG .4% CONDNS DB=>MWB,0.2266660244,0.3150379012,Pass,Pass,0.2304789362,0.3945792554,Pass,Pass
 Warmup Convergence Information,PERIMETER_BOT_ZN_2,SizingPeriod: BUFFALO.NIAGARA.INTL.AP_NY_USA ANN CLG .4% CONDNS DB=>MWB,0.3629923929,0.5416287730,Pass,Pass,0.2252425065,0.3893002434,Pass,Pass
 Warmup Convergence Information,PERIMETER_BOT_ZN_1,SizingPeriod: BUFFALO.NIAGARA.INTL.AP_NY_USA ANN CLG .4% CONDNS DB=>MWB,0.2707763786,0.3925380037,Pass,Pass,0.2300920662,0.3959217773,Pass,Pass
 Warmup Convergence Information,PERIMETER_BOT_ZN_4,SizingPeriod: BUFFALO.NIAGARA.INTL.AP_NY_USA ANN CLG .4% CONDNS DB=>MWB,0.3594807659,0.5580763253,Pass,Pass,0.2346156029,0.3950961756,Pass,Pass
 Warmup Convergence Information,PERIMETER_MID_ZN_3,SizingPeriod: BUFFALO.NIAGARA.INTL.AP_NY_USA ANN CLG .4% CONDNS DB=>MWB,0.2452160312,0.3585241755,Pass,Pass,0.2351052940,0.3998797271,Pass,Pass
 Warmup Convergence Information,PERIMETER_MID_ZN_2,SizingPeriod: BUFFALO.NIAGARA.INTL.AP_NY_USA ANN CLG .4% CONDNS DB=>MWB,0.4268356326,0.6415501840,Pass,Pass,0.2352896068,0.4005272786,Pass,Pass
 Warmup Convergence Information,PERIMETER_MID_ZN_1,SizingPeriod: BUFFALO.NIAGARA.INTL.AP_NY_USA ANN CLG .4% CONDNS DB=>MWB,0.3077938527,0.4906994597,Pass,Pass,0.2362592142,0.4059087578,Pass,Pass
 Warmup Convergence Information,PERIMETER_MID_ZN_4,SizingPeriod: BUFFALO.NIAGARA.INTL.AP_NY_USA ANN CLG .4% CONDNS DB=>MWB,0.4160815950,0.6541754943,Pass,Pass,0.2428907568,0.4058921195,Pass,Pass
Environment,Buffalo Niagara Intl Ap NY USA TMY3 WMO#=725280,WeatherFileRunPeriod,01/01,12/31,Sunday,365,Use RunPeriod Specified Day,No ,No ,No ,Yes,Yes
Environment:Daylight Saving,Yes,InputFile,03/12,11/05
Environment:Special Days,NEW YEARS DAY,Holiday,InputFile,01/01,  1
Environment:Special Days,VETERANS DAY,Holiday,InputFile,11/11,  1
Environment:Special Days,CHRISTMAS,Holiday,InputFile,12/25,  1
Environment:Special Days,INDEPENDENCE DAY,Holiday,InputFile,07/04,  1
Environment:Special Days,MLK DAY,Holiday,InputFile,01/16,  1
Environment:Special Days,PRESIDENTS DAY,Holiday,InputFile,02/20,  1
Environment:Special Days,MEMORIAL DAY,Holiday,InputFile,05/29,  1
Environment:Special Days,LABOR DAY,Holiday,InputFile,09/04,  1
Environment:Special Days,COLUMBUS DAY,Holiday,InputFile,10/09,  1
Environment:Special Days,THANKSGIVING,Holiday,InputFile,11/23,  1
Environment:WarmupDays, 12
 Warmup Convergence Information,CORE_BOTTOM,RunPeriod: Buffalo Niagara Intl Ap NY USA TMY3 WMO#=725280,1.1641080936E-002,1.8413238554E-002,Pass,Pass,0.0000000000,0.0000000000,Pass,Pass
 Warmup Convergence Information,TOPFLOOR_PLENUM,RunPeriod: Buffalo Niagara Intl Ap NY USA TMY3 WMO#=725280,0.2085464696,0.1001586146,Pass,Pass,0.6489956127,0.4824255976,Pass,Pass
 Warmup Convergence Information,MIDFLOOR_PLENUM,RunPeriod: Buffalo Niagara Intl Ap NY USA TMY3 WMO#=725280,7.3208002267E-002,4.4119118789E-002,Pass,Pass,0.4764065866,0.5086271606,Pass,Pass
 Warmup Convergence Information,FIRSTFLOOR_PLENUM,RunPeriod: Buffalo Niagara Intl Ap NY USA TMY3 WMO#=725280,1.0476970696E-002,8.7159754810E-003,Pass,Pass,0.0000000000,0.0000000000,Pass,Pass
 Warmup Convergence Information,CORE_MID,RunPeriod: Buffalo Niagara Intl Ap NY USA TMY3 WMO#=725280,4.6017287900E-002,2.6331946236E-002,Pass,Pass,0.4672970887,0.4985210949,Pass,Pass
 Warmup Convergence Information,CORE_TOP,RunPeriod: Buffalo Niagara Intl Ap NY USA TMY3 WMO#=725280,5.8166060544E-002,5.8322195413E-002,Pass,Pass,7.4374328425,37.1369209879,Pass,Pass
 Warmup Convergence Information,PERIMETER_TOP_ZN_3,RunPeriod: Buffalo Niagara Intl Ap NY USA TMY3 WMO#=725280,0.5169352991,0.3821134680,Pass,Pass,5.8698163159,23.0720023591,Pass,Pass
 Warmup Convergence Information,PERIMETER_TOP_ZN_2,RunPeriod: Buffalo Niagara Intl Ap NY USA TMY3 WMO#=725280,0.5303238416,0.3903920765,Pass,Pass,6.8237934085,25.0851921375,Pass,Pass
 Warmup Convergence Information,PERIMETER_TOP_ZN_1,RunPeriod: Buffalo Niagara Intl Ap NY USA TMY3 WMO#=725280,0.4884332972,0.3759796912,Pass,Pass,14.8009304708,100.4069790472,Pass,Pass
 Warmup Convergence Information,PERIMETER_TOP_ZN_4,RunPeriod: Buffalo Niagara Intl Ap NY USA TMY3 WMO#=725280,0.5334652578,0.3942960869,Pass,Pass,7.4020567304,31.6969661696,Pass,Pass
 Warmup Convergence Information,PERIMETER_BOT_ZN_3,RunPeriod: Buffalo Niagara Intl Ap NY USA TMY3 WMO#=725280,3.0209254562E-002,2.1558287080E-002,Pass,Pass,0.0000000000,0.0000000000,Pass,Pass
 Warmup Convergence Information,PERIMETER_BOT_ZN_2,RunPeriod: Buffalo Niagara Intl Ap NY USA TMY3 WMO#=725280,3.0805464464E-002,2.1221937022E-002,Pass,Pass,0.0000000000,0.0000000000,Pass,Pass
 Warmup Convergence Information,PERIMETER_BOT_ZN_1,RunPeriod: Buffalo Niagara Intl Ap NY USA TMY3 WMO#=725280,3.6347754611E-002,2.5902284371E-002,Pass,Pass,0.0000000000,0.0000000000,Pass,Pass
 Warmup Convergence Information,PERIMETER_BOT_ZN_4,RunPeriod: Buffalo Niagara Intl Ap NY USA TMY3 WMO#=725280,3.2893711956E-002,2.3517206240E-002,Pass,Pass,0.0000000000,0.0000000000,Pass,Pass
 Warmup Convergence Information,PERIMETER_MID_ZN_3,RunPeriod: Buffalo Niagara Intl Ap NY USA TMY3 WMO#=725280,0.2609216602,0.2337106192,Pass,Pass,7.2188427488,52.0200803727,Pass,Pass
 Warmup Convergence Information,PERIMETER_MID_ZN_2,RunPeriod: Buffalo Niagara Intl Ap NY USA TMY3 WMO#=725280,0.2782194475,0.2487642110,Pass,Pass,3.2543622284,19.7367280935,Pass,Pass
 Warmup Convergence Information,PERIMETER_MID_ZN_1,RunPeriod: Buffalo Niagara Intl Ap NY USA TMY3 WMO#=725280,0.2353467339,0.2206052513,Pass,Pass,2.6030242518,13.9731878388,Pass,Pass
 Warmup Convergence Information,PERIMETER_MID_ZN_4,RunPeriod: Buffalo Niagara Intl Ap NY USA TMY3 WMO#=725280,0.2832175044,0.2512794331,Pass,Pass,29.6712770197,275.2512601583,Pass,Pass
! <Program Control Information:Threads/Parallel Sims>, Threading Supported,Maximum Number of Threads, Env Set Threads (OMP_NUM_THREADS), EP Env Set Threads (EP_OMP_NUM_THREADS), IDF Set Threads, Number of Threads Used (Interior Radiant Exchange), Number Nominal Surfaces, Number Parallel Sims
Program Control:Threads/Parallel Sims, No,1, N/A, N/A, N/A, N/A, N/A, 1
End of Data
